


 32 35  0  0  0  0  0  0  0  0999 V2000
   -0.8279   -9.6658   45.3836 C   0  0  0  0  0  0  0  0  0  0  0  0
   -1.3257  -10.5605   46.1204 O   0  0  0  0  0  0  0  0  0  0  0  0
    0.5932   -9.4339   45.4163 N   0  0  0  0  0  0  0  0  0  0  0  0
    1.4888  -10.5882   45.5926 C   0  0  0  0  0  0  0  0  0  0  0  0
    2.9619  -10.1777   45.5046 C   0  0  0  0  0  0  0  0  0  0  0  0
    3.2447   -8.9949   46.4431 C   0  0  0  0  0  0  0  0  0  0  0  0
    2.2785   -7.7994   46.2120 C   0  0  0  0  0  0  0  0  0  0  0  0
    1.1524   -8.0899   45.2068 C   0  0  0  0  0  0  0  0  0  0  0  0
   -3.3311   -7.6669   43.7052 N   0  0  0  0  0  0  0  0  0  0  0  0
   -2.7374   -8.0672   44.8475 C   0  0  0  0  0  0  0  0  0  0  0  0
   -1.7181   -8.9165   44.4764 C   0  0  0  0  0  0  0  0  0  0  0  0
   -1.7233   -9.0211   43.1316 N   0  0  0  0  0  0  0  0  0  0  0  0
   -2.7079   -8.2503   42.6917 N   0  0  0  0  0  0  0  0  0  0  0  0
   -7.8402   -4.1074   43.1470 C   0  0  0  0  0  0  0  0  0  0  0  0
   -6.6521   -5.0223   43.2800 C   0  0  0  0  0  0  0  0  0  0  0  0
   -6.7902   -6.2341   43.9762 C   0  0  0  0  0  0  0  0  0  0  0  0
   -5.7055   -7.1004   44.1209 C   0  0  0  0  0  0  0  0  0  0  0  0
   -4.4583   -6.7803   43.5602 C   0  0  0  0  0  0  0  0  0  0  0  0
   -4.3185   -5.5719   42.8542 C   0  0  0  0  0  0  0  0  0  0  0  0
   -5.4037   -4.6921   42.7019 C   0  0  0  0  0  0  0  0  0  0  0  0
   -5.2152   -3.4136   41.9237 C   0  0  0  0  0  0  0  0  0  0  0  0
    5.3231   -7.9304   47.3451 C   0  0  0  0  0  0  0  0  0  0  0  0
    4.7145   -8.5648   46.3004 N   0  0  0  0  0  0  0  0  0  0  0  0
    4.7608   -7.7222   48.3929 O   0  0  0  0  0  0  0  0  0  0  0  0
    5.1259   -8.8064   45.3971 H   0  0  0  0  0  0  0  0  0  0  0  0
    6.7616   -7.5252   47.0689 C   0  0  0  0  0  0  0  0  0  0  0  0
    6.9637   -6.0284   47.0115 C   0  0  0  0  0  0  0  0  0  0  0  0
    6.0860   -5.2233   46.2752 C   0  0  0  0  0  0  0  0  0  0  0  0
    6.2665   -3.8401   46.2077 C   0  0  0  0  0  0  0  0  0  0  0  0
    7.3395   -3.2424   46.8697 C   0  0  0  0  0  0  0  0  0  0  0  0
    8.2253   -4.0341   47.6024 C   0  0  0  0  0  0  0  0  0  0  0  0
    8.0361   -5.4155   47.6721 C   0  0  0  0  0  0  0  0  0  0  0  0
 24 22  2  0  0  0
 23 22  1  0  0  0
 22 26  1  0  0  0
 26 27  1  0  0  0
 27 28  2  0  0  0
 27 32  1  0  0  0
 28 29  1  0  0  0
 29 30  2  0  0  0
 30 31  1  0  0  0
 31 32  2  0  0  0
 14 15  1  0  0  0
 15 16  2  0  0  0
 16 17  1  0  0  0
 17 18  2  0  0  0
 18  9  1  0  0  0
  9 10  1  0  0  0
 10 11  2  0  0  0
 11  1  1  0  0  0
  1  2  2  0  0  0
  1  3  1  0  0  0
  3  4  1  0  0  0
  4  5  1  0  0  0
  5  6  1  0  0  0
  6  7  1  0  0  0
  7  8  1  0  0  0
 11 12  1  0  0  0
 12 13  2  0  0  0
 18 19  1  0  0  0
 19 20  2  0  0  0
 20 21  1  0  0  0
 20 15  1  0  0  0
 13  9  1  0  0  0
  8  3  1  0  0  0
 23  6  1  0  0  0
 23 25  1  0  0  0
M  END
>  <minimizedAffinity>
-11.4725

>  <minimizedRMSD>
4.82065

>  <molecular weight>
391.297

$$$$



 33 36  0  0  0  0  0  0  0  0999 V2000
   -1.0438   -9.4585   45.5065 C   0  0  0  0  0  0  0  0  0  0  0  0
   -1.6177  -10.2155   46.3306 O   0  0  0  0  0  0  0  0  0  0  0  0
    0.3916   -9.3799   45.4924 N   0  0  0  0  0  0  0  0  0  0  0  0
    1.1796  -10.6033   45.7129 C   0  0  0  0  0  0  0  0  0  0  0  0
    2.6378  -10.2796   46.0618 C   0  0  0  0  0  0  0  0  0  0  0  0
    3.2789   -9.3190   45.0383 C   0  0  0  0  0  0  0  0  0  0  0  0
    2.3254   -8.1833   44.5773 C   0  0  0  0  0  0  0  0  0  0  0  0
    1.0710   -8.0768   45.4480 C   0  0  0  0  0  0  0  0  0  0  0  0
   -3.3232   -7.3140   43.6846 C   0  0  0  0  0  0  0  0  0  0  0  0
   -2.8791   -7.7963   44.9021 C   0  0  0  0  0  0  0  0  0  0  0  0
   -1.8648   -8.6711   44.5705 C   0  0  0  0  0  0  0  0  0  0  0  0
   -1.7069   -8.6747   43.2362 N   0  0  0  0  0  0  0  0  0  0  0  0
   -2.5824   -7.8485   42.6896 N   0  0  0  0  0  0  0  0  0  0  0  0
   -2.6776   -7.6570   41.7286 H   0  0  0  0  0  0  0  0  0  0  0  0
   -7.2773   -3.1898   42.6806 C   0  0  0  0  0  0  0  0  0  0  0  0
   -6.2800   -4.2769   42.9533 C   0  0  0  0  0  0  0  0  0  0  0  0
   -5.0170   -4.2223   42.3590 C   0  0  0  0  0  0  0  0  0  0  0  0
   -4.0765   -5.2220   42.6069 C   0  0  0  0  0  0  0  0  0  0  0  0
   -4.3768   -6.2975   43.4579 C   0  0  0  0  0  0  0  0  0  0  0  0
   -5.6675   -6.3755   44.0421 C   0  0  0  0  0  0  0  0  0  0  0  0
   -6.0880   -7.5242   44.9209 C   0  0  0  0  0  0  0  0  0  0  0  0
   -6.6004   -5.3515   43.7928 C   0  0  0  0  0  0  0  0  0  0  0  0
    4.5675   -8.2404   46.9052 C   0  0  0  0  0  0  0  0  0  0  0  0
    4.5697   -8.7306   45.6310 N   0  0  0  0  0  0  0  0  0  0  0  0
    3.5610   -8.1621   47.5674 O   0  0  0  0  0  0  0  0  0  0  0  0
    5.3561   -8.7437   44.9793 H   0  0  0  0  0  0  0  0  0  0  0  0
    5.9381   -7.8171   47.4072 C   0  0  0  0  0  0  0  0  0  0  0  0
    6.2929   -6.3908   47.0547 C   0  0  0  0  0  0  0  0  0  0  0  0
    5.5443   -5.6901   46.1010 C   0  0  0  0  0  0  0  0  0  0  0  0
    5.8668   -4.3747   45.7606 C   0  0  0  0  0  0  0  0  0  0  0  0
    6.9548   -3.7435   46.3643 C   0  0  0  0  0  0  0  0  0  0  0  0
    7.7129   -4.4325   47.3124 C   0  0  0  0  0  0  0  0  0  0  0  0
    7.3819   -5.7450   47.6539 C   0  0  0  0  0  0  0  0  0  0  0  0
 25 23  2  0  0  0
 24 23  1  0  0  0
 23 27  1  0  0  0
 27 28  1  0  0  0
 28 29  2  0  0  0
 28 33  1  0  0  0
 29 30  1  0  0  0
 30 31  2  0  0  0
 31 32  1  0  0  0
 32 33  2  0  0  0
 15 16  1  0  0  0
 16 17  2  0  0  0
 17 18  1  0  0  0
 18 19  2  0  0  0
 19  9  1  0  0  0
  9 10  2  0  0  0
 10 11  1  0  0  0
 11  1  1  0  0  0
  1  2  2  0  0  0
  1  3  1  0  0  0
  3  4  1  0  0  0
  4  5  1  0  0  0
  5  6  1  0  0  0
  6  7  1  0  0  0
  7  8  1  0  0  0
 11 12  2  0  0  0
 12 13  1  0  0  0
 19 20  1  0  0  0
 20 21  1  0  0  0
 20 22  2  0  0  0
 22 16  1  0  0  0
 13  9  1  0  0  0
  8  3  1  0  0  0
 24  6  1  0  0  0
 24 26  1  0  0  0
 13 14  1  0  0  0
M  END
>  <minimizedAffinity>
-11.1467

>  <minimizedRMSD>
3.96755

>  <molecular weight>
390.309

$$$$



 26 29  0  0  0  0  0  0  0  0999 V2000
    3.3008   -8.6298   46.4957 C   0  0  0  0  0  0  0  0  0  0  0  0
    3.6375   -9.9902   46.4125 C   0  0  0  0  0  0  0  0  0  0  0  0
    2.7269  -10.9076   45.8852 C   0  0  0  0  0  0  0  0  0  0  0  0
    1.4776  -10.4775   45.4345 C   0  0  0  0  0  0  0  0  0  0  0  0
    1.1213   -9.1193   45.5100 C   0  0  0  0  0  0  0  0  0  0  0  0
    2.0389   -8.2029   46.0551 C   0  0  0  0  0  0  0  0  0  0  0  0
   -0.1927   -8.6608   45.0000 C   0  0  0  0  0  0  0  0  0  0  0  0
   -0.8047   -7.4456   45.3189 C   0  0  0  0  0  0  0  0  0  0  0  0
   -1.9702   -7.4277   44.5833 C   0  0  0  0  0  0  0  0  0  0  0  0
   -2.9650   -6.4566   44.4813 C   0  0  0  0  0  0  0  0  0  0  0  0
   -4.0491   -6.7156   43.6237 C   0  0  0  0  0  0  0  0  0  0  0  0
   -4.1146   -7.9261   42.9005 C   0  0  0  0  0  0  0  0  0  0  0  0
   -3.0904   -8.8827   43.0173 C   0  0  0  0  0  0  0  0  0  0  0  0
   -2.0268   -8.5963   43.8724 C   0  0  0  0  0  0  0  0  0  0  0  0
   -0.9469   -9.3581   44.1151 N   0  0  0  0  0  0  0  0  0  0  0  0
    5.5082   -7.4636   46.5083 C   0  0  0  0  0  0  0  0  0  0  0  0
    4.2841   -7.6448   47.0854 N   0  0  0  0  0  0  0  0  0  0  0  0
    5.7990   -7.9467   45.4408 O   0  0  0  0  0  0  0  0  0  0  0  0
    3.9142   -7.1539   47.9030 H   0  0  0  0  0  0  0  0  0  0  0  0
    6.4543   -6.5983   47.3243 C   0  0  0  0  0  0  0  0  0  0  0  0
    6.4173   -5.1377   46.9373 C   0  0  0  0  0  0  0  0  0  0  0  0
    5.7493   -4.7297   45.7763 C   0  0  0  0  0  0  0  0  0  0  0  0
    5.7147   -3.3843   45.4035 C   0  0  0  0  0  0  0  0  0  0  0  0
    6.3609   -2.4260   46.1849 C   0  0  0  0  0  0  0  0  0  0  0  0
    7.0354   -2.8199   47.3417 C   0  0  0  0  0  0  0  0  0  0  0  0
    7.0610   -4.1653   47.7133 C   0  0  0  0  0  0  0  0  0  0  0  0
 18 16  2  0  0  0
 17 16  1  0  0  0
 16 20  1  0  0  0
 20 21  1  0  0  0
 21 22  2  0  0  0
 21 26  1  0  0  0
 22 23  1  0  0  0
 23 24  2  0  0  0
 24 25  1  0  0  0
 25 26  2  0  0  0
  1  2  2  0  0  0
  2  3  1  0  0  0
  3  4  2  0  0  0
  4  5  1  0  0  0
  5  7  1  0  0  0
  7  8  2  0  0  0
  8  9  1  0  0  0
  9 10  2  0  0  0
 10 11  1  0  0  0
 11 12  2  0  0  0
 12 13  1  0  0  0
 13 14  1  0  0  0
 14 15  2  0  0  0
  5  6  2  0  0  0
  6  1  1  0  0  0
 15  7  1  0  0  0
 14  9  1  0  0  0
 17  1  1  0  0  0
 17 19  1  0  0  0
M  END
>  <minimizedAffinity>
-11.06

>  <minimizedRMSD>
2.86523

>  <molecular weight>
309.256

$$$$



 39 43  0  0  0  0  0  0  0  0999 V2000
   -4.8198   -7.4753   43.5771 C   0  0  0  0  0  0  0  0  0  0  0  0
   -3.3864   -7.9972   43.4351 C   0  0  0  0  0  0  0  0  0  0  0  0
   -2.7751   -7.9318   44.8426 C   0  0  0  0  0  0  0  0  0  0  0  0
   -1.7554   -9.0586   45.1382 C   0  0  0  0  0  0  0  0  0  0  0  0
   -0.4972   -8.2835   45.3752 C   0  0  0  0  0  0  0  0  0  0  0  0
   -0.6832   -7.0125   45.2769 N   0  0  0  0  0  0  0  0  0  0  0  0
   -1.9933   -6.7524   44.9747 O   0  0  0  0  0  0  0  0  0  0  0  0
   -3.9625   -7.8895   45.8106 C   0  0  0  0  0  0  0  0  0  0  0  0
   -5.1016   -7.4660   45.0084 N   0  0  0  0  0  0  0  0  0  0  0  0
   -6.4393   -7.3745   45.5336 C   0  0  0  0  0  0  0  0  0  0  0  0
   -7.4108   -7.7474   44.8229 O   0  0  0  0  0  0  0  0  0  0  0  0
    0.8271   -8.8811   45.6746 C   0  0  0  0  0  0  0  0  0  0  0  0
    1.0831  -10.2328   45.3814 C   0  0  0  0  0  0  0  0  0  0  0  0
    2.3354  -10.7898   45.6506 C   0  0  0  0  0  0  0  0  0  0  0  0
    3.3504  -10.0066   46.2037 C   0  0  0  0  0  0  0  0  0  0  0  0
    3.1205   -8.6504   46.4909 C   0  0  0  0  0  0  0  0  0  0  0  0
    1.8528   -8.1010   46.2437 C   0  0  0  0  0  0  0  0  0  0  0  0
    5.4220   -7.6661   46.4950 C   0  0  0  0  0  0  0  0  0  0  0  0
    4.2127   -7.8086   47.1127 N   0  0  0  0  0  0  0  0  0  0  0  0
    5.6296   -8.0701   45.3764 O   0  0  0  0  0  0  0  0  0  0  0  0
    3.9232   -7.3729   47.9909 H   0  0  0  0  0  0  0  0  0  0  0  0
    6.4655   -6.9503   47.3367 C   0  0  0  0  0  0  0  0  0  0  0  0
    6.5568   -5.4693   47.0490 C   0  0  0  0  0  0  0  0  0  0  0  0
    5.8586   -4.9135   45.9700 C   0  0  0  0  0  0  0  0  0  0  0  0
    5.9410   -3.5481   45.6887 C   0  0  0  0  0  0  0  0  0  0  0  0
    6.7360   -2.7185   46.4801 C   0  0  0  0  0  0  0  0  0  0  0  0
    7.4419   -3.2607   47.5553 C   0  0  0  0  0  0  0  0  0  0  0  0
    7.3505   -4.6252   47.8360 C   0  0  0  0  0  0  0  0  0  0  0  0
   -6.7025   -6.8560   46.8928 C   0  0  0  0  0  0  0  0  0  0  0  0
   -6.6050   -7.7121   48.0030 C   0  0  0  0  0  0  0  0  0  0  0  0
   -6.8664   -7.2307   49.2906 C   0  0  0  0  0  0  0  0  0  0  0  0
   -7.2423   -5.8982   49.4781 C   0  0  0  0  0  0  0  0  0  0  0  0
   -7.3661   -5.0467   48.3762 C   0  0  0  0  0  0  0  0  0  0  0  0
   -7.1031   -5.5226   47.0876 C   0  0  0  0  0  0  0  0  0  0  0  0
   -3.8498   -5.2416   42.7950 N   0  0  0  0  0  0  0  0  0  0  0  0
   -4.9783   -6.0953   42.9932 C   0  0  0  0  0  0  0  0  0  0  0  0
   -6.1207   -5.7045   42.6317 O   0  0  0  0  0  0  0  0  0  0  0  0
   -3.8885   -4.4922   42.0894 H   0  0  0  0  0  0  0  0  0  0  0  0
   -2.9977   -5.3755   43.3578 H   0  0  0  0  0  0  0  0  0  0  0  0
 20 18  2  0  0  0
 19 18  1  0  0  0
 18 22  1  0  0  0
 22 23  1  0  0  0
 23 24  2  0  0  0
 23 28  1  0  0  0
 24 25  1  0  0  0
 25 26  2  0  0  0
 26 27  1  0  0  0
 27 28  2  0  0  0
 35 36  1  0  0  0
 36 37  2  0  0  0
 36  1  1  0  0  0
  1  2  1  0  0  0
  2  3  1  0  0  0
  3  4  1  0  0  0
  4  5  1  0  0  0
  5 12  1  0  0  0
 12 13  2  0  0  0
 13 14  1  0  0  0
 14 15  2  0  0  0
 15 16  1  0  0  0
 16 17  2  0  0  0
  5  6  2  0  0  0
  6  7  1  0  0  0
  3  8  1  0  0  0
  8  9  1  0  0  0
  9 10  1  0  0  0
 10 11  2  0  0  0
 10 29  1  0  0  0
 29 30  2  0  0  0
 30 31  1  0  0  0
 31 32  2  0  0  0
 32 33  1  0  0  0
 33 34  2  0  0  0
  9  1  1  0  0  0
 34 29  1  0  0  0
  7  3  1  0  0  0
 17 12  1  0  0  0
 35 38  1  0  0  0
 35 39  1  0  0  0
 19 16  1  0  0  0
 19 21  1  0  0  0
M  END
>  <minimizedAffinity>
-10.8778

>  <minimizedRMSD>
3.01035

>  <molecular weight>
459.348

$$$$



 40 44  0  0  0  0  0  0  0  0999 V2000
   -0.2551   -8.3478   45.5674 C   0  0  0  0  0  0  0  0  0  0  0  0
   -0.4422   -7.0746   45.5065 N   0  0  0  0  0  0  0  0  0  0  0  0
   -1.7604   -6.8062   45.2475 O   0  0  0  0  0  0  0  0  0  0  0  0
   -2.5426   -7.9832   45.0995 C   0  0  0  0  0  0  0  0  0  0  0  0
   -1.5224   -9.1171   45.3584 C   0  0  0  0  0  0  0  0  0  0  0  0
   -3.1769   -8.0094   43.7042 C   0  0  0  0  0  0  0  0  0  0  0  0
   -4.5495   -7.3509   43.8842 C   0  0  0  0  0  0  0  0  0  0  0  0
   -4.8437   -7.4461   45.3098 N   0  0  0  0  0  0  0  0  0  0  0  0
   -6.0568   -6.9472   45.9081 C   0  0  0  0  0  0  0  0  0  0  0  0
   -6.8511   -6.2510   45.2168 O   0  0  0  0  0  0  0  0  0  0  0  0
   -3.7193   -7.9594   46.0775 C   0  0  0  0  0  0  0  0  0  0  0  0
   -6.3631   -7.1876   47.3683 C   0  0  0  0  0  0  0  0  0  0  0  0
   -7.1232   -5.9921   47.9983 C   0  0  0  0  0  0  0  0  0  0  0  0
   -8.4764   -6.5213   48.4999 C   0  0  0  0  0  0  0  0  0  0  0  0
   -8.4260   -7.9577   48.1687 C   0  0  0  0  0  0  0  0  0  0  0  0
   -9.3453   -8.7750   48.4408 O   0  0  0  0  0  0  0  0  0  0  0  0
   -7.2320   -8.3395   47.5248 N   0  0  0  0  0  0  0  0  0  0  0  0
   -7.0188   -9.2528   47.2253 H   0  0  0  0  0  0  0  0  0  0  0  0
    3.3733   -8.7446   46.6302 C   0  0  0  0  0  0  0  0  0  0  0  0
    3.6017  -10.0908   46.2973 C   0  0  0  0  0  0  0  0  0  0  0  0
    2.5864  -10.8546   45.7173 C   0  0  0  0  0  0  0  0  0  0  0  0
    1.3341  -10.2892   45.4699 C   0  0  0  0  0  0  0  0  0  0  0  0
    1.0753   -8.9516   45.8202 C   0  0  0  0  0  0  0  0  0  0  0  0
    2.1023   -8.1910   46.4130 C   0  0  0  0  0  0  0  0  0  0  0  0
    5.6391   -7.6915   46.5743 C   0  0  0  0  0  0  0  0  0  0  0  0
    4.4762   -7.9157   47.2535 N   0  0  0  0  0  0  0  0  0  0  0  0
    5.7655   -7.9524   45.4023 O   0  0  0  0  0  0  0  0  0  0  0  0
    4.2230   -7.5484   48.1729 H   0  0  0  0  0  0  0  0  0  0  0  0
    6.7424   -7.0805   47.4224 C   0  0  0  0  0  0  0  0  0  0  0  0
    6.9679   -5.6115   47.1475 C   0  0  0  0  0  0  0  0  0  0  0  0
    6.1164   -4.9145   46.2816 C   0  0  0  0  0  0  0  0  0  0  0  0
    6.3188   -3.5591   46.0130 C   0  0  0  0  0  0  0  0  0  0  0  0
    7.3879   -2.8824   46.6010 C   0  0  0  0  0  0  0  0  0  0  0  0
    8.2477   -3.5667   47.4616 C   0  0  0  0  0  0  0  0  0  0  0  0
    8.0366   -4.9200   47.7319 C   0  0  0  0  0  0  0  0  0  0  0  0
   -5.6097   -8.0413   43.0640 C   0  0  0  0  0  0  0  0  0  0  0  0
   -6.4873   -7.2847   42.2304 N   0  0  0  0  0  0  0  0  0  0  0  0
   -5.7319   -9.2951   43.1190 O   0  0  0  0  0  0  0  0  0  0  0  0
   -6.3979   -6.3054   42.1822 H   0  0  0  0  0  0  0  0  0  0  0  0
   -7.1819   -7.7421   41.7036 H   0  0  0  0  0  0  0  0  0  0  0  0
 27 25  2  0  0  0
 26 25  1  0  0  0
 25 29  1  0  0  0
 29 30  1  0  0  0
 30 31  2  0  0  0
 30 35  1  0  0  0
 31 32  1  0  0  0
 32 33  2  0  0  0
 33 34  1  0  0  0
 34 35  2  0  0  0
 19 20  2  0  0  0
 20 21  1  0  0  0
 21 22  2  0  0  0
 22 23  1  0  0  0
 23  1  1  0  0  0
  1  2  2  0  0  0
  2  3  1  0  0  0
  3  4  1  0  0  0
  4  5  1  0  0  0
  4  6  1  0  0  0
  6  7  1  0  0  0
  7 36  1  0  0  0
 36 37  1  0  0  0
 36 38  2  0  0  0
  7  8  1  0  0  0
  8  9  1  0  0  0
  9 10  2  0  0  0
  9 12  1  0  0  0
 12 13  1  0  0  0
 13 14  1  0  0  0
 14 15  1  0  0  0
 15 16  2  0  0  0
 15 17  1  0  0  0
  8 11  1  0  0  0
 23 24  2  0  0  0
 24 19  1  0  0  0
  5  1  1  0  0  0
 17 12  1  0  0  0
 11  4  1  0  0  0
 26 19  1  0  0  0
 26 28  1  0  0  0
 37 39  1  0  0  0
 37 40  1  0  0  0
 17 18  1  0  0  0
M  END
>  <minimizedAffinity>
-10.8351

>  <minimizedRMSD>
2.74657

>  <molecular weight>
466.34

$$$$



 25 27  0  0  0  0  0  0  0  0999 V2000
   -2.2945   -7.9514   43.7747 C   0  0  0  0  0  0  0  0  0  0  0  0
   -2.9434   -8.5046   42.8451 O   0  0  0  0  0  0  0  0  0  0  0  0
   -1.1646   -8.6307   44.3626 N   0  0  0  0  0  0  0  0  0  0  0  0
   -1.0715  -10.0931   44.2296 C   0  0  0  0  0  0  0  0  0  0  0  0
   -0.3333  -10.6933   45.4223 C   0  0  0  0  0  0  0  0  0  0  0  0
    1.0139  -10.0499   45.5566 C   0  0  0  0  0  0  0  0  0  0  0  0
    2.1287  -10.8029   45.9510 C   0  0  0  0  0  0  0  0  0  0  0  0
    3.3786  -10.1939   46.0846 C   0  0  0  0  0  0  0  0  0  0  0  0
    3.5332   -8.8231   45.8159 C   0  0  0  0  0  0  0  0  0  0  0  0
    2.4110   -8.0686   45.4433 C   0  0  0  0  0  0  0  0  0  0  0  0
    1.1552   -8.6767   45.2907 C   0  0  0  0  0  0  0  0  0  0  0  0
   -0.0378   -7.8371   44.8945 C   0  0  0  0  0  0  0  0  0  0  0  0
    5.2244   -7.5644   47.1594 C   0  0  0  0  0  0  0  0  0  0  0  0
    4.8694   -8.1598   45.9831 N   0  0  0  0  0  0  0  0  0  0  0  0
    4.5760   -7.6891   48.1701 O   0  0  0  0  0  0  0  0  0  0  0  0
    5.4629   -8.2294   45.1513 H   0  0  0  0  0  0  0  0  0  0  0  0
    6.5035   -6.7477   47.0775 C   0  0  0  0  0  0  0  0  0  0  0  0
    6.2798   -5.3255   46.6171 C   0  0  0  0  0  0  0  0  0  0  0  0
    5.4238   -5.0558   45.5423 C   0  0  0  0  0  0  0  0  0  0  0  0
    5.2150   -3.7470   45.1022 C   0  0  0  0  0  0  0  0  0  0  0  0
    5.8719   -2.6865   45.7270 C   0  0  0  0  0  0  0  0  0  0  0  0
    6.7325   -2.9421   46.7959 C   0  0  0  0  0  0  0  0  0  0  0  0
    6.9323   -4.2517   47.2361 C   0  0  0  0  0  0  0  0  0  0  0  0
   -3.9575   -6.1152   43.4731 C   0  0  0  0  0  0  0  0  0  0  0  0
   -2.7366   -6.5945   44.2523 C   0  0  0  0  0  0  0  0  0  0  0  0
 15 13  2  0  0  0
 14 13  1  0  0  0
 13 17  1  0  0  0
 17 18  1  0  0  0
 18 19  2  0  0  0
 18 23  1  0  0  0
 19 20  1  0  0  0
 20 21  2  0  0  0
 21 22  1  0  0  0
 22 23  2  0  0  0
 24 25  1  0  0  0
 25  1  1  0  0  0
  1  2  2  0  0  0
  1  3  1  0  0  0
  3  4  1  0  0  0
  4  5  1  0  0  0
  5  6  1  0  0  0
  6  7  2  0  0  0
  7  8  1  0  0  0
  8  9  2  0  0  0
  9 10  1  0  0  0
 10 11  2  0  0  0
 11 12  1  0  0  0
 12  3  1  0  0  0
 11  6  1  0  0  0
 14  9  1  0  0  0
 14 16  1  0  0  0
M  END
>  <minimizedAffinity>
-10.8096

>  <minimizedRMSD>
3.32705

>  <molecular weight>
301.234

$$$$



 31 34  0  0  0  0  0  0  0  0999 V2000
   -0.7413   -9.4300   45.4552 C   0  0  0  0  0  0  0  0  0  0  0  0
   -1.1249  -10.1423   46.4233 O   0  0  0  0  0  0  0  0  0  0  0  0
    0.6699   -9.2270   45.2467 N   0  0  0  0  0  0  0  0  0  0  0  0
    1.1687   -7.9987   44.6154 C   0  0  0  0  0  0  0  0  0  0  0  0
    2.5120   -7.5797   45.2241 C   0  0  0  0  0  0  0  0  0  0  0  0
    3.5085   -8.7490   45.2098 C   0  0  0  0  0  0  0  0  0  0  0  0
    2.9203   -9.9292   45.9978 C   0  0  0  0  0  0  0  0  0  0  0  0
    1.5848  -10.3691   45.3889 C   0  0  0  0  0  0  0  0  0  0  0  0
   -3.4595   -7.7023   43.7980 N   0  0  0  0  0  0  0  0  0  0  0  0
   -2.7671   -7.9760   44.9237 C   0  0  0  0  0  0  0  0  0  0  0  0
   -1.7585   -8.8403   44.5599 C   0  0  0  0  0  0  0  0  0  0  0  0
   -1.8696   -9.0812   43.2377 N   0  0  0  0  0  0  0  0  0  0  0  0
   -2.9028   -8.3756   42.8026 N   0  0  0  0  0  0  0  0  0  0  0  0
   -7.9432   -4.1403   43.1263 C   0  0  0  0  0  0  0  0  0  0  0  0
   -6.7868   -5.0768   43.3131 C   0  0  0  0  0  0  0  0  0  0  0  0
   -6.9319   -6.2667   44.0364 C   0  0  0  0  0  0  0  0  0  0  0  0
   -5.8470   -7.1338   44.1991 C   0  0  0  0  0  0  0  0  0  0  0  0
   -4.5916   -6.8222   43.6397 C   0  0  0  0  0  0  0  0  0  0  0  0
   -4.4541   -5.6244   42.9166 C   0  0  0  0  0  0  0  0  0  0  0  0
   -5.5393   -4.7584   42.7594 C   0  0  0  0  0  0  0  0  0  0  0  0
    4.9844   -8.1299   47.1341 C   0  0  0  0  0  0  0  0  0  0  0  0
    4.8657   -8.3200   45.7874 N   0  0  0  0  0  0  0  0  0  0  0  0
    4.0293   -7.9436   47.8488 O   0  0  0  0  0  0  0  0  0  0  0  0
    5.5834   -8.1535   45.0757 H   0  0  0  0  0  0  0  0  0  0  0  0
    6.4157   -8.1841   47.6423 C   0  0  0  0  0  0  0  0  0  0  0  0
    7.1243   -6.8502   47.5857 C   0  0  0  0  0  0  0  0  0  0  0  0
    6.3977   -5.6709   47.3808 C   0  0  0  0  0  0  0  0  0  0  0  0
    7.0414   -4.4331   47.3185 C   0  0  0  0  0  0  0  0  0  0  0  0
    8.4285   -4.3596   47.4495 C   0  0  0  0  0  0  0  0  0  0  0  0
    9.1654   -5.5282   47.6484 C   0  0  0  0  0  0  0  0  0  0  0  0
    8.5160   -6.7621   47.7167 C   0  0  0  0  0  0  0  0  0  0  0  0
 23 21  2  0  0  0
 22 21  1  0  0  0
 21 25  1  0  0  0
 25 26  1  0  0  0
 26 27  2  0  0  0
 26 31  1  0  0  0
 27 28  1  0  0  0
 28 29  2  0  0  0
 29 30  1  0  0  0
 30 31  2  0  0  0
 14 15  1  0  0  0
 15 16  2  0  0  0
 16 17  1  0  0  0
 17 18  2  0  0  0
 18  9  1  0  0  0
  9 10  1  0  0  0
 10 11  2  0  0  0
 11  1  1  0  0  0
  1  2  2  0  0  0
  1  3  1  0  0  0
  3  4  1  0  0  0
  4  5  1  0  0  0
  5  6  1  0  0  0
  6  7  1  0  0  0
  7  8  1  0  0  0
 11 12  1  0  0  0
 12 13  2  0  0  0
 18 19  1  0  0  0
 19 20  2  0  0  0
 20 15  1  0  0  0
 13  9  1  0  0  0
  8  3  1  0  0  0
 22  6  1  0  0  0
 22 24  1  0  0  0
M  END
>  <minimizedAffinity>
-10.7352

>  <minimizedRMSD>
3.37476

>  <molecular weight>
379.286

$$$$



 36 40  0  0  0  0  0  0  0  0999 V2000
   -0.2291   -8.8498   44.8151 C   0  0  0  0  0  0  0  0  0  0  0  0
   -0.7571   -9.4481   43.7272 N   0  0  0  0  0  0  0  0  0  0  0  0
   -1.9059   -8.8709   43.5501 O   0  0  0  0  0  0  0  0  0  0  0  0
   -2.0914   -7.9651   44.4779 C   0  0  0  0  0  0  0  0  0  0  0  0
   -1.0416   -7.8969   45.3213 N   0  0  0  0  0  0  0  0  0  0  0  0
   -3.3115   -7.0936   44.5636 C   0  0  0  0  0  0  0  0  0  0  0  0
   -3.5755   -6.3655   43.2299 C   0  0  0  0  0  0  0  0  0  0  0  0
   -4.8325   -5.4899   43.3245 C   0  0  0  0  0  0  0  0  0  0  0  0
   -6.0421   -6.3282   43.7492 C   0  0  0  0  0  0  0  0  0  0  0  0
   -5.7283   -7.0704   44.9759 N   0  0  0  0  0  0  0  0  0  0  0  0
   -6.6561   -7.1145   46.0745 C   0  0  0  0  0  0  0  0  0  0  0  0
   -6.9609   -8.2277   46.5800 O   0  0  0  0  0  0  0  0  0  0  0  0
   -4.5358   -7.9236   44.9809 C   0  0  0  0  0  0  0  0  0  0  0  0
   -7.2180   -5.8715   46.6444 C   0  0  0  0  0  0  0  0  0  0  0  0
   -7.9100   -4.6321   45.7385 S   0  0  0  0  0  0  0  0  0  0  0  0
   -8.2155   -3.5899   47.0185 C   0  0  0  0  0  0  0  0  0  0  0  0
   -7.7688   -4.1961   48.1838 C   0  0  0  0  0  0  0  0  0  0  0  0
   -7.2119   -5.4704   47.9855 C   0  0  0  0  0  0  0  0  0  0  0  0
   -6.6559   -6.2878   49.1123 C   0  0  0  0  0  0  0  0  0  0  0  0
    3.2057   -8.5605   46.4051 C   0  0  0  0  0  0  0  0  0  0  0  0
    3.5779   -9.9136   46.4793 C   0  0  0  0  0  0  0  0  0  0  0  0
    2.7140  -10.9088   46.0152 C   0  0  0  0  0  0  0  0  0  0  0  0
    1.4711  -10.5652   45.4777 C   0  0  0  0  0  0  0  0  0  0  0  0
    1.0763   -9.2176   45.4048 C   0  0  0  0  0  0  0  0  0  0  0  0
    1.9468   -8.2238   45.8849 C   0  0  0  0  0  0  0  0  0  0  0  0
    5.4001   -7.3539   46.4352 C   0  0  0  0  0  0  0  0  0  0  0  0
    4.1323   -7.4866   46.9242 N   0  0  0  0  0  0  0  0  0  0  0  0
    5.7852   -7.9551   45.4617 O   0  0  0  0  0  0  0  0  0  0  0  0
    3.6923   -6.8924   47.6296 H   0  0  0  0  0  0  0  0  0  0  0  0
    6.2663   -6.3815   47.2189 C   0  0  0  0  0  0  0  0  0  0  0  0
    6.2316   -4.9722   46.6737 C   0  0  0  0  0  0  0  0  0  0  0  0
    5.4770   -4.6729   45.5328 C   0  0  0  0  0  0  0  0  0  0  0  0
    5.4431   -3.3766   45.0145 C   0  0  0  0  0  0  0  0  0  0  0  0
    6.1764   -2.3599   45.6270 C   0  0  0  0  0  0  0  0  0  0  0  0
    6.9375   -2.6459   46.7616 C   0  0  0  0  0  0  0  0  0  0  0  0
    6.9623   -3.9421   47.2794 C   0  0  0  0  0  0  0  0  0  0  0  0
 28 26  2  0  0  0
 27 26  1  0  0  0
 26 30  1  0  0  0
 30 31  1  0  0  0
 31 32  2  0  0  0
 31 36  1  0  0  0
 32 33  1  0  0  0
 33 34  2  0  0  0
 34 35  1  0  0  0
 35 36  2  0  0  0
 20 21  2  0  0  0
 21 22  1  0  0  0
 22 23  2  0  0  0
 23 24  1  0  0  0
 24  1  1  0  0  0
  1  2  2  0  0  0
  2  3  1  0  0  0
  3  4  1  0  0  0
  4  6  1  0  0  0
  6  7  1  0  0  0
  7  8  1  0  0  0
  8  9  1  0  0  0
  9 10  1  0  0  0
 10 11  1  0  0  0
 11 12  2  0  0  0
 11 14  1  0  0  0
 14 15  1  0  0  0
 15 16  1  0  0  0
 16 17  2  0  0  0
 17 18  1  0  0  0
 18 19  1  0  0  0
 10 13  1  0  0  0
  4  5  2  0  0  0
 24 25  2  0  0  0
 25 20  1  0  0  0
  5  1  1  0  0  0
 13  6  1  0  0  0
 18 14  2  0  0  0
 27 20  1  0  0  0
 27 29  1  0  0  0
M  END
>  <minimizedAffinity>
-10.6922

>  <minimizedRMSD>
3.47823

>  <molecular weight>
461.387

$$$$



 24 26  0  0  0  0  0  0  0  0999 V2000
   -2.5350   -6.3882   44.2395 C   0  0  0  0  0  0  0  0  0  0  0  0
   -2.2752   -7.8380   43.9362 C   0  0  0  0  0  0  0  0  0  0  0  0
   -3.0981   -8.4338   43.1853 O   0  0  0  0  0  0  0  0  0  0  0  0
   -1.1390   -8.5586   44.4727 N   0  0  0  0  0  0  0  0  0  0  0  0
   -1.0687  -10.0177   44.2691 C   0  0  0  0  0  0  0  0  0  0  0  0
   -0.3123  -10.6902   45.4112 C   0  0  0  0  0  0  0  0  0  0  0  0
    1.0456  -10.0746   45.5440 C   0  0  0  0  0  0  0  0  0  0  0  0
    2.1616  -10.8632   45.8537 C   0  0  0  0  0  0  0  0  0  0  0  0
    3.4199  -10.2744   45.9996 C   0  0  0  0  0  0  0  0  0  0  0  0
    3.5806   -8.8882   45.8298 C   0  0  0  0  0  0  0  0  0  0  0  0
    2.4577   -8.1011   45.5344 C   0  0  0  0  0  0  0  0  0  0  0  0
    1.1940   -8.6890   45.3666 C   0  0  0  0  0  0  0  0  0  0  0  0
   -0.0021   -7.8176   45.0594 C   0  0  0  0  0  0  0  0  0  0  0  0
    5.2265   -7.6051   47.2016 C   0  0  0  0  0  0  0  0  0  0  0  0
    4.9322   -8.2480   46.0336 N   0  0  0  0  0  0  0  0  0  0  0  0
    4.5694   -7.7497   48.2041 O   0  0  0  0  0  0  0  0  0  0  0  0
    5.5664   -8.3980   45.2465 H   0  0  0  0  0  0  0  0  0  0  0  0
    6.4510   -6.7084   47.1221 C   0  0  0  0  0  0  0  0  0  0  0  0
    6.1642   -5.3516   46.5211 C   0  0  0  0  0  0  0  0  0  0  0  0
    5.2243   -5.2176   45.4919 C   0  0  0  0  0  0  0  0  0  0  0  0
    4.9561   -3.9709   44.9227 C   0  0  0  0  0  0  0  0  0  0  0  0
    5.6363   -2.8378   45.3701 C   0  0  0  0  0  0  0  0  0  0  0  0
    6.5800   -2.9583   46.3915 C   0  0  0  0  0  0  0  0  0  0  0  0
    6.8392   -4.2060   46.9615 C   0  0  0  0  0  0  0  0  0  0  0  0
 16 14  2  0  0  0
 15 14  1  0  0  0
 14 18  1  0  0  0
 18 19  1  0  0  0
 19 20  2  0  0  0
 19 24  1  0  0  0
 20 21  1  0  0  0
 21 22  2  0  0  0
 22 23  1  0  0  0
 23 24  2  0  0  0
  1  2  1  0  0  0
  2  3  2  0  0  0
  2  4  1  0  0  0
  4  5  1  0  0  0
  5  6  1  0  0  0
  6  7  1  0  0  0
  7  8  2  0  0  0
  8  9  1  0  0  0
  9 10  2  0  0  0
 10 11  1  0  0  0
 11 12  2  0  0  0
 12 13  1  0  0  0
 13  4  1  0  0  0
 12  7  1  0  0  0
 15 10  1  0  0  0
 15 17  1  0  0  0
M  END
>  <minimizedAffinity>
-10.5592

>  <minimizedRMSD>
3.35123

>  <molecular weight>
289.223

$$$$



 30 33  0  0  0  0  0  0  0  0999 V2000
    3.4843   -8.5703   45.8053 C   0  0  0  0  0  0  0  0  0  0  0  0
    2.6029   -7.6879   44.8919 C   0  0  0  0  0  0  0  0  0  0  0  0
    1.3837   -8.4437   44.3499 C   0  0  0  0  0  0  0  0  0  0  0  0
    0.6030   -9.0521   45.4406 N   0  0  0  0  0  0  0  0  0  0  0  0
   -0.6409   -9.7130   45.1473 C   0  0  0  0  0  0  0  0  0  0  0  0
   -0.8256  -10.8953   45.5437 O   0  0  0  0  0  0  0  0  0  0  0  0
    1.1976   -9.1828   46.7781 C   0  0  0  0  0  0  0  0  0  0  0  0
    2.6686   -9.5846   46.6492 C   0  0  0  0  0  0  0  0  0  0  0  0
   -1.7171   -9.0287   44.4093 C   0  0  0  0  0  0  0  0  0  0  0  0
   -2.7064   -8.2346   44.9484 C   0  0  0  0  0  0  0  0  0  0  0  0
   -3.4373   -7.7812   43.9103 N   0  0  0  0  0  0  0  0  0  0  0  0
   -2.9088   -8.2701   42.7973 N   0  0  0  0  0  0  0  0  0  0  0  0
   -1.8581   -9.0290   43.0703 N   0  0  0  0  0  0  0  0  0  0  0  0
   -4.5823   -6.9034   43.9431 C   0  0  0  0  0  0  0  0  0  0  0  0
   -4.6662   -5.8238   43.0429 C   0  0  0  0  0  0  0  0  0  0  0  0
   -5.7646   -4.9594   43.0686 C   0  0  0  0  0  0  0  0  0  0  0  0
   -6.7923   -5.1599   43.9914 C   0  0  0  0  0  0  0  0  0  0  0  0
   -6.7263   -6.2288   44.8859 C   0  0  0  0  0  0  0  0  0  0  0  0
   -5.6305   -7.0976   44.8649 C   0  0  0  0  0  0  0  0  0  0  0  0
    5.6658   -7.4982   46.4075 C   0  0  0  0  0  0  0  0  0  0  0  0
    4.3449   -7.6661   46.7095 N   0  0  0  0  0  0  0  0  0  0  0  0
    6.1715   -7.9801   45.4229 O   0  0  0  0  0  0  0  0  0  0  0  0
    3.8227   -7.2492   47.4811 H   0  0  0  0  0  0  0  0  0  0  0  0
    6.4266   -6.6490   47.4125 C   0  0  0  0  0  0  0  0  0  0  0  0
    6.4567   -5.1802   47.0572 C   0  0  0  0  0  0  0  0  0  0  0  0
    5.8416   -4.7227   45.8854 C   0  0  0  0  0  0  0  0  0  0  0  0
    5.8693   -3.3694   45.5418 C   0  0  0  0  0  0  0  0  0  0  0  0
    6.5259   -2.4531   46.3639 C   0  0  0  0  0  0  0  0  0  0  0  0
    7.1481   -2.8968   47.5320 C   0  0  0  0  0  0  0  0  0  0  0  0
    7.1114   -4.2497   47.8741 C   0  0  0  0  0  0  0  0  0  0  0  0
 22 20  2  0  0  0
 21 20  1  0  0  0
 20 24  1  0  0  0
 24 25  1  0  0  0
 25 26  2  0  0  0
 25 30  1  0  0  0
 26 27  1  0  0  0
 27 28  2  0  0  0
 28 29  1  0  0  0
 29 30  2  0  0  0
  1  2  1  0  0  0
  2  3  1  0  0  0
  3  4  1  0  0  0
  4  5  1  0  0  0
  5  6  2  0  0  0
  5  9  1  0  0  0
  9 10  2  0  0  0
 10 11  1  0  0  0
 11 14  1  0  0  0
 14 15  2  0  0  0
 15 16  1  0  0  0
 16 17  2  0  0  0
 17 18  1  0  0  0
 18 19  2  0  0  0
 11 12  1  0  0  0
 12 13  2  0  0  0
  4  7  1  0  0  0
  7  8  1  0  0  0
  8  1  1  0  0  0
 13  9  1  0  0  0
 19 14  1  0  0  0
 21  1  1  0  0  0
 21 23  1  0  0  0
M  END
>  <minimizedAffinity>
-10.5448

>  <minimizedRMSD>
2.77095

>  <molecular weight>
367.276

$$$$



 32 35  0  0  0  0  0  0  0  0999 V2000
   -0.6218  -10.0314   45.2923 C   0  0  0  0  0  0  0  0  0  0  0  0
   -0.9689  -11.2033   45.6010 O   0  0  0  0  0  0  0  0  0  0  0  0
    0.6699   -9.5433   45.7002 N   0  0  0  0  0  0  0  0  0  0  0  0
    0.8372   -8.1854   46.2350 C   0  0  0  0  0  0  0  0  0  0  0  0
    2.0734   -7.5421   45.6021 C   0  0  0  0  0  0  0  0  0  0  0  0
    3.3476   -8.4216   45.7423 C   0  0  0  0  0  0  0  0  0  0  0  0
    3.0634   -9.8245   46.3194 C   0  0  0  0  0  0  0  0  0  0  0  0
    1.8172  -10.4626   45.6885 C   0  0  0  0  0  0  0  0  0  0  0  0
   -3.1485   -7.8874   43.8380 N   0  0  0  0  0  0  0  0  0  0  0  0
   -2.5459   -8.3998   44.9304 C   0  0  0  0  0  0  0  0  0  0  0  0
   -1.5309   -9.2111   44.4709 C   0  0  0  0  0  0  0  0  0  0  0  0
   -1.5473   -9.1866   43.1240 N   0  0  0  0  0  0  0  0  0  0  0  0
   -2.5326   -8.3737   42.7702 N   0  0  0  0  0  0  0  0  0  0  0  0
   -7.7704   -6.6246   45.2444 C   0  0  0  0  0  0  0  0  0  0  0  0
   -6.5283   -6.3360   44.4530 C   0  0  0  0  0  0  0  0  0  0  0  0
   -6.4448   -5.1972   43.6389 C   0  0  0  0  0  0  0  0  0  0  0  0
   -5.2758   -4.9312   42.9120 C   0  0  0  0  0  0  0  0  0  0  0  0
   -5.2049   -3.7310   42.0137 C   0  0  0  0  0  0  0  0  0  0  0  0
   -4.2025   -5.8316   42.9727 C   0  0  0  0  0  0  0  0  0  0  0  0
   -4.2702   -6.9801   43.7816 C   0  0  0  0  0  0  0  0  0  0  0  0
   -5.4408   -7.2188   44.5258 C   0  0  0  0  0  0  0  0  0  0  0  0
    5.7000   -7.6606   46.2243 C   0  0  0  0  0  0  0  0  0  0  0  0
    4.3955   -7.7138   46.6237 N   0  0  0  0  0  0  0  0  0  0  0  0
    6.0679   -8.0837   45.1550 O   0  0  0  0  0  0  0  0  0  0  0  0
    3.9967   -7.3134   47.4729 H   0  0  0  0  0  0  0  0  0  0  0  0
    6.6313   -7.0169   47.2383 C   0  0  0  0  0  0  0  0  0  0  0  0
    6.7821   -5.5245   47.0530 C   0  0  0  0  0  0  0  0  0  0  0  0
    6.0211   -4.8503   46.0902 C   0  0  0  0  0  0  0  0  0  0  0  0
    6.1569   -3.4730   45.9036 C   0  0  0  0  0  0  0  0  0  0  0  0
    7.0686   -2.7502   46.6737 C   0  0  0  0  0  0  0  0  0  0  0  0
    7.8377   -3.4109   47.6330 C   0  0  0  0  0  0  0  0  0  0  0  0
    7.6929   -4.7868   47.8199 C   0  0  0  0  0  0  0  0  0  0  0  0
 24 22  2  0  0  0
 23 22  1  0  0  0
 22 26  1  0  0  0
 26 27  1  0  0  0
 27 28  2  0  0  0
 27 32  1  0  0  0
 28 29  1  0  0  0
 29 30  2  0  0  0
 30 31  1  0  0  0
 31 32  2  0  0  0
 14 15  1  0  0  0
 15 16  2  0  0  0
 16 17  1  0  0  0
 17 18  1  0  0  0
 17 19  2  0  0  0
 19 20  1  0  0  0
 20  9  1  0  0  0
  9 10  1  0  0  0
 10 11  2  0  0  0
 11  1  1  0  0  0
  1  2  2  0  0  0
  1  3  1  0  0  0
  3  4  1  0  0  0
  4  5  1  0  0  0
  5  6  1  0  0  0
  6  7  1  0  0  0
  7  8  1  0  0  0
 11 12  1  0  0  0
 12 13  2  0  0  0
 20 21  2  0  0  0
 21 15  1  0  0  0
 13  9  1  0  0  0
  8  3  1  0  0  0
 23  6  1  0  0  0
 23 25  1  0  0  0
M  END
>  <minimizedAffinity>
-10.5342

>  <minimizedRMSD>
3.17055

>  <molecular weight>
391.297

$$$$



 36 40  0  0  0  0  0  0  0  0999 V2000
   -0.3076   -7.9771   45.3436 C   0  0  0  0  0  0  0  0  0  0  0  0
   -0.4375   -6.6574   45.5896 N   0  0  0  0  0  0  0  0  0  0  0  0
   -1.6286   -6.3539   45.1741 O   0  0  0  0  0  0  0  0  0  0  0  0
   -2.2141   -7.4242   44.6955 C   0  0  0  0  0  0  0  0  0  0  0  0
   -1.4132   -8.5037   44.7739 N   0  0  0  0  0  0  0  0  0  0  0  0
   -3.5983   -7.4484   44.1139 C   0  0  0  0  0  0  0  0  0  0  0  0
   -3.9204   -6.1102   43.4334 C   0  0  0  0  0  0  0  0  0  0  0  0
   -5.2987   -6.1327   42.7426 C   0  0  0  0  0  0  0  0  0  0  0  0
   -6.2637   -7.1863   43.3183 C   0  0  0  0  0  0  0  0  0  0  0  0
   -6.0083   -7.4303   44.7468 N   0  0  0  0  0  0  0  0  0  0  0  0
   -7.0976   -7.5542   45.6816 C   0  0  0  0  0  0  0  0  0  0  0  0
   -7.0331   -8.4126   46.6023 O   0  0  0  0  0  0  0  0  0  0  0  0
   -4.6457   -7.7437   45.2043 C   0  0  0  0  0  0  0  0  0  0  0  0
   -8.3088   -6.7220   45.5800 C   0  0  0  0  0  0  0  0  0  0  0  0
   -9.7759   -7.2743   44.9720 S   0  0  0  0  0  0  0  0  0  0  0  0
  -10.6276   -5.8423   45.1859 C   0  0  0  0  0  0  0  0  0  0  0  0
   -9.7731   -4.9095   45.7574 C   0  0  0  0  0  0  0  0  0  0  0  0
   -8.4770   -5.3953   45.9921 C   0  0  0  0  0  0  0  0  0  0  0  0
   -7.4443   -4.5674   46.6959 C   0  0  0  0  0  0  0  0  0  0  0  0
    3.1811   -8.8724   46.5461 C   0  0  0  0  0  0  0  0  0  0  0  0
    3.2154  -10.2467   46.2540 C   0  0  0  0  0  0  0  0  0  0  0  0
    2.1182  -10.8658   45.6521 C   0  0  0  0  0  0  0  0  0  0  0  0
    0.9726  -10.1275   45.3487 C   0  0  0  0  0  0  0  0  0  0  0  0
    0.9093   -8.7577   45.6549 C   0  0  0  0  0  0  0  0  0  0  0  0
    2.0177   -8.1402   46.2610 C   0  0  0  0  0  0  0  0  0  0  0  0
    5.5056   -7.9269   46.5228 C   0  0  0  0  0  0  0  0  0  0  0  0
    4.3608   -8.2005   47.2147 N   0  0  0  0  0  0  0  0  0  0  0  0
    5.5930   -8.0802   45.3285 O   0  0  0  0  0  0  0  0  0  0  0  0
    4.1792   -7.9755   48.1946 H   0  0  0  0  0  0  0  0  0  0  0  0
    6.6421   -7.4083   47.3884 C   0  0  0  0  0  0  0  0  0  0  0  0
    6.9223   -5.9359   47.1932 C   0  0  0  0  0  0  0  0  0  0  0  0
    6.0810   -5.1555   46.3909 C   0  0  0  0  0  0  0  0  0  0  0  0
    6.3336   -3.7959   46.1960 C   0  0  0  0  0  0  0  0  0  0  0  0
    7.4431   -3.1986   46.7949 C   0  0  0  0  0  0  0  0  0  0  0  0
    8.2932   -3.9664   47.5926 C   0  0  0  0  0  0  0  0  0  0  0  0
    8.0321   -5.3236   47.7894 C   0  0  0  0  0  0  0  0  0  0  0  0
 28 26  2  0  0  0
 27 26  1  0  0  0
 26 30  1  0  0  0
 30 31  1  0  0  0
 31 32  2  0  0  0
 31 36  1  0  0  0
 32 33  1  0  0  0
 33 34  2  0  0  0
 34 35  1  0  0  0
 35 36  2  0  0  0
 20 21  2  0  0  0
 21 22  1  0  0  0
 22 23  2  0  0  0
 23 24  1  0  0  0
 24  1  1  0  0  0
  1  2  2  0  0  0
  2  3  1  0  0  0
  3  4  1  0  0  0
  4  6  1  0  0  0
  6  7  1  0  0  0
  7  8  1  0  0  0
  8  9  1  0  0  0
  9 10  1  0  0  0
 10 11  1  0  0  0
 11 12  2  0  0  0
 11 14  1  0  0  0
 14 15  1  0  0  0
 15 16  1  0  0  0
 16 17  2  0  0  0
 17 18  1  0  0  0
 18 19  1  0  0  0
 10 13  1  0  0  0
  4  5  2  0  0  0
 24 25  2  0  0  0
 25 20  1  0  0  0
  5  1  1  0  0  0
 13  6  1  0  0  0
 18 14  2  0  0  0
 27 20  1  0  0  0
 27 29  1  0  0  0
M  END
>  <minimizedAffinity>
-10.499

>  <minimizedRMSD>
3.08206

>  <molecular weight>
461.387

$$$$



 36 39  0  0  0  0  0  0  0  0999 V2000
   -6.5366   -7.2134   45.0460 C   0  0  0  0  0  0  0  0  0  0  0  0
   -6.7729   -7.4864   46.2556 O   0  0  0  0  0  0  0  0  0  0  0  0
   -5.1896   -7.3393   44.5470 N   0  0  0  0  0  0  0  0  0  0  0  0
   -4.1168   -7.9037   45.3528 C   0  0  0  0  0  0  0  0  0  0  0  0
   -2.8449   -7.7518   44.5113 C   0  0  0  0  0  0  0  0  0  0  0  0
   -1.8283   -8.9082   44.6780 C   0  0  0  0  0  0  0  0  0  0  0  0
   -0.6256   -8.1889   45.2041 C   0  0  0  0  0  0  0  0  0  0  0  0
   -0.8329   -6.9238   45.3331 N   0  0  0  0  0  0  0  0  0  0  0  0
   -2.1083   -6.6159   44.9423 O   0  0  0  0  0  0  0  0  0  0  0  0
   -3.3284   -7.5447   43.0697 C   0  0  0  0  0  0  0  0  0  0  0  0
   -4.7672   -7.0294   43.1837 C   0  0  0  0  0  0  0  0  0  0  0  0
    0.6684   -8.8264   45.5487 C   0  0  0  0  0  0  0  0  0  0  0  0
    0.8769  -10.1972   45.3147 C   0  0  0  0  0  0  0  0  0  0  0  0
    2.0943  -10.7949   45.6491 C   0  0  0  0  0  0  0  0  0  0  0  0
    3.1213  -10.0341   46.2098 C   0  0  0  0  0  0  0  0  0  0  0  0
    2.9418   -8.6590   46.4343 C   0  0  0  0  0  0  0  0  0  0  0  0
    1.7084   -8.0677   46.1198 C   0  0  0  0  0  0  0  0  0  0  0  0
    5.2828   -7.7743   46.4973 C   0  0  0  0  0  0  0  0  0  0  0  0
    4.0445   -7.8431   47.0684 N   0  0  0  0  0  0  0  0  0  0  0  0
    5.4992   -8.1546   45.3721 O   0  0  0  0  0  0  0  0  0  0  0  0
    3.7376   -7.3519   47.9107 H   0  0  0  0  0  0  0  0  0  0  0  0
    6.3471   -7.1717   47.3995 C   0  0  0  0  0  0  0  0  0  0  0  0
    6.6497   -5.7241   47.0877 C   0  0  0  0  0  0  0  0  0  0  0  0
    5.8875   -5.0298   46.1403 C   0  0  0  0  0  0  0  0  0  0  0  0
    6.1621   -3.6945   45.8373 C   0  0  0  0  0  0  0  0  0  0  0  0
    7.2153   -3.0362   46.4729 C   0  0  0  0  0  0  0  0  0  0  0  0
    7.9867   -3.7184   47.4152 C   0  0  0  0  0  0  0  0  0  0  0  0
    7.7034   -5.0512   47.7192 C   0  0  0  0  0  0  0  0  0  0  0  0
   -4.8506   -5.5474   42.9109 C   0  0  0  0  0  0  0  0  0  0  0  0
   -4.4806   -5.0029   41.6432 N   0  0  0  0  0  0  0  0  0  0  0  0
   -5.2608   -4.7747   43.8179 O   0  0  0  0  0  0  0  0  0  0  0  0
   -4.1588   -5.5971   40.9273 H   0  0  0  0  0  0  0  0  0  0  0  0
   -4.5474   -4.0334   41.4855 H   0  0  0  0  0  0  0  0  0  0  0  0
   -9.6545   -5.4441   43.6495 C   0  0  0  0  0  0  0  0  0  0  0  0
   -8.5457   -5.8660   44.5598 C   0  0  0  0  0  0  0  0  0  0  0  0
   -7.6458   -6.7737   44.1692 C   0  0  0  0  0  0  0  0  0  0  0  0
 20 18  2  0  0  0
 19 18  1  0  0  0
 18 22  1  0  0  0
 22 23  1  0  0  0
 23 24  2  0  0  0
 23 28  1  0  0  0
 24 25  1  0  0  0
 25 26  2  0  0  0
 26 27  1  0  0  0
 27 28  2  0  0  0
 34 35  1  0  0  0
 35 36  2  0  0  0
 36  1  1  0  0  0
  1  2  2  0  0  0
  1  3  1  0  0  0
  3  4  1  0  0  0
  4  5  1  0  0  0
  5  6  1  0  0  0
  6  7  1  0  0  0
  7 12  1  0  0  0
 12 13  2  0  0  0
 13 14  1  0  0  0
 14 15  2  0  0  0
 15 16  1  0  0  0
 16 17  2  0  0  0
  7  8  2  0  0  0
  8  9  1  0  0  0
  5 10  1  0  0  0
 10 11  1  0  0  0
 11 29  1  0  0  0
 29 30  1  0  0  0
 29 31  2  0  0  0
 11  3  1  0  0  0
  9  5  1  0  0  0
 17 12  1  0  0  0
 19 16  1  0  0  0
 19 21  1  0  0  0
 30 32  1  0  0  0
 30 33  1  0  0  0
M  END
>  <minimizedAffinity>
-10.4725

>  <minimizedRMSD>
3.52969

>  <molecular weight>
423.316

$$$$



 32 35  0  0  0  0  0  0  0  0999 V2000
    3.2308   -8.6459   45.9327 C   0  0  0  0  0  0  0  0  0  0  0  0
    2.5134   -9.8610   46.5475 C   0  0  0  0  0  0  0  0  0  0  0  0
    1.4378  -10.3869   45.5909 C   0  0  0  0  0  0  0  0  0  0  0  0
    0.5232   -9.2990   45.2153 N   0  0  0  0  0  0  0  0  0  0  0  0
   -0.8959   -9.4069   45.4543 C   0  0  0  0  0  0  0  0  0  0  0  0
   -1.3215  -10.0912   46.4286 O   0  0  0  0  0  0  0  0  0  0  0  0
    1.1151   -8.0733   44.6568 C   0  0  0  0  0  0  0  0  0  0  0  0
    2.2085   -7.5449   45.5923 C   0  0  0  0  0  0  0  0  0  0  0  0
   -1.8738   -8.7519   44.5665 C   0  0  0  0  0  0  0  0  0  0  0  0
   -2.8057   -7.8086   44.9394 C   0  0  0  0  0  0  0  0  0  0  0  0
   -3.5102   -7.5459   43.7726 C   0  0  0  0  0  0  0  0  0  0  0  0
   -3.0293   -8.3099   42.7753 N   0  0  0  0  0  0  0  0  0  0  0  0
   -2.0402   -9.0397   43.2648 N   0  0  0  0  0  0  0  0  0  0  0  0
   -1.5086   -9.6924   42.7543 H   0  0  0  0  0  0  0  0  0  0  0  0
   -4.6357   -6.5974   43.6110 C   0  0  0  0  0  0  0  0  0  0  0  0
   -5.8776   -6.8240   44.2429 C   0  0  0  0  0  0  0  0  0  0  0  0
   -6.9431   -5.9371   44.0499 C   0  0  0  0  0  0  0  0  0  0  0  0
   -6.7804   -4.8119   43.2385 C   0  0  0  0  0  0  0  0  0  0  0  0
   -7.8227   -3.9658   43.0319 F   0  0  0  0  0  0  0  0  0  0  0  0
   -5.5513   -4.5704   42.6233 C   0  0  0  0  0  0  0  0  0  0  0  0
   -4.4854   -5.4608   42.7993 C   0  0  0  0  0  0  0  0  0  0  0  0
    5.5301   -7.7558   46.3740 C   0  0  0  0  0  0  0  0  0  0  0  0
    4.3132   -8.1090   46.8826 N   0  0  0  0  0  0  0  0  0  0  0  0
    5.9140   -8.1313   45.2927 O   0  0  0  0  0  0  0  0  0  0  0  0
    4.0326   -8.1107   47.8671 H   0  0  0  0  0  0  0  0  0  0  0  0
    6.3407   -6.8482   47.2843 C   0  0  0  0  0  0  0  0  0  0  0  0
    6.3248   -5.3987   46.8563 C   0  0  0  0  0  0  0  0  0  0  0  0
    5.5718   -4.9966   45.7464 C   0  0  0  0  0  0  0  0  0  0  0  0
    5.5551   -3.6619   45.3358 C   0  0  0  0  0  0  0  0  0  0  0  0
    6.3045   -2.7090   46.0267 C   0  0  0  0  0  0  0  0  0  0  0  0
    7.0641   -3.0975   47.1314 C   0  0  0  0  0  0  0  0  0  0  0  0
    7.0717   -4.4319   47.5415 C   0  0  0  0  0  0  0  0  0  0  0  0
 24 22  2  0  0  0
 23 22  1  0  0  0
 22 26  1  0  0  0
 26 27  1  0  0  0
 27 28  2  0  0  0
 27 32  1  0  0  0
 28 29  1  0  0  0
 29 30  2  0  0  0
 30 31  1  0  0  0
 31 32  2  0  0  0
  1  2  1  0  0  0
  2  3  1  0  0  0
  3  4  1  0  0  0
  4  5  1  0  0  0
  5  6  2  0  0  0
  5  9  1  0  0  0
  9 10  2  0  0  0
 10 11  1  0  0  0
 11 15  1  0  0  0
 15 16  2  0  0  0
 16 17  1  0  0  0
 17 18  2  0  0  0
 18 19  1  0  0  0
 18 20  1  0  0  0
 20 21  2  0  0  0
 11 12  2  0  0  0
 12 13  1  0  0  0
  4  7  1  0  0  0
  7  8  1  0  0  0
  8  1  1  0  0  0
 13  9  1  0  0  0
 21 15  1  0  0  0
 23  1  1  0  0  0
 23 25  1  0  0  0
 13 14  1  0  0  0
M  END
>  <minimizedAffinity>
-10.4321

>  <minimizedRMSD>
4.35727

>  <molecular weight>
385.286

$$$$



 31 34  0  0  0  0  0  0  0  0999 V2000
    3.2746   -8.7158   45.8610 C   0  0  0  0  0  0  0  0  0  0  0  0
    2.2303   -7.5895   45.9402 C   0  0  0  0  0  0  0  0  0  0  0  0
    1.0521   -7.8810   45.0072 C   0  0  0  0  0  0  0  0  0  0  0  0
    0.5144   -9.2187   45.2830 N   0  0  0  0  0  0  0  0  0  0  0  0
   -0.9030   -9.4396   45.4165 C   0  0  0  0  0  0  0  0  0  0  0  0
   -1.3284  -10.2337   46.2977 O   0  0  0  0  0  0  0  0  0  0  0  0
    1.4403  -10.3585   45.2854 C   0  0  0  0  0  0  0  0  0  0  0  0
    2.6319  -10.0702   46.2046 C   0  0  0  0  0  0  0  0  0  0  0  0
   -1.8673   -8.7753   44.5218 C   0  0  0  0  0  0  0  0  0  0  0  0
   -2.8829   -7.9206   44.8914 C   0  0  0  0  0  0  0  0  0  0  0  0
   -3.5325   -7.5916   43.7570 N   0  0  0  0  0  0  0  0  0  0  0  0
   -2.9423   -8.2201   42.7502 N   0  0  0  0  0  0  0  0  0  0  0  0
   -1.9278   -8.9521   43.1875 N   0  0  0  0  0  0  0  0  0  0  0  0
   -4.6672   -6.7154   43.6083 C   0  0  0  0  0  0  0  0  0  0  0  0
   -5.9152   -7.0361   44.1783 C   0  0  0  0  0  0  0  0  0  0  0  0
   -7.0089   -6.1817   44.0109 C   0  0  0  0  0  0  0  0  0  0  0  0
   -6.8719   -4.9971   43.2828 C   0  0  0  0  0  0  0  0  0  0  0  0
   -8.2457   -3.9261   43.0766 Cl  0  0  0  0  0  0  0  0  0  0  0  0
   -5.6394   -4.6691   42.7146 C   0  0  0  0  0  0  0  0  0  0  0  0
   -4.5441   -5.5227   42.8728 C   0  0  0  0  0  0  0  0  0  0  0  0
    5.6511   -8.0359   46.3026 C   0  0  0  0  0  0  0  0  0  0  0  0
    4.4437   -8.4122   46.8171 N   0  0  0  0  0  0  0  0  0  0  0  0
    5.9076   -8.1175   45.1257 O   0  0  0  0  0  0  0  0  0  0  0  0
    4.2068   -8.5601   47.7995 H   0  0  0  0  0  0  0  0  0  0  0  0
    6.6256   -7.5021   47.3396 C   0  0  0  0  0  0  0  0  0  0  0  0
    6.9227   -6.0285   47.1824 C   0  0  0  0  0  0  0  0  0  0  0  0
    6.0739   -5.2122   46.4248 C   0  0  0  0  0  0  0  0  0  0  0  0
    6.3417   -3.8509   46.2653 C   0  0  0  0  0  0  0  0  0  0  0  0
    7.4739   -3.2878   46.8548 C   0  0  0  0  0  0  0  0  0  0  0  0
    8.3315   -4.0915   47.6078 C   0  0  0  0  0  0  0  0  0  0  0  0
    8.0553   -5.4503   47.7696 C   0  0  0  0  0  0  0  0  0  0  0  0
 23 21  2  0  0  0
 22 21  1  0  0  0
 21 25  1  0  0  0
 25 26  1  0  0  0
 26 27  2  0  0  0
 26 31  1  0  0  0
 27 28  1  0  0  0
 28 29  2  0  0  0
 29 30  1  0  0  0
 30 31  2  0  0  0
  1  2  1  0  0  0
  2  3  1  0  0  0
  3  4  1  0  0  0
  4  5  1  0  0  0
  5  6  2  0  0  0
  5  9  1  0  0  0
  9 10  2  0  0  0
 10 11  1  0  0  0
 11 14  1  0  0  0
 14 15  2  0  0  0
 15 16  1  0  0  0
 16 17  2  0  0  0
 17 18  1  0  0  0
 17 19  1  0  0  0
 19 20  2  0  0  0
 11 12  1  0  0  0
 12 13  2  0  0  0
  4  7  1  0  0  0
  7  8  1  0  0  0
  8  1  1  0  0  0
 13  9  1  0  0  0
 20 14  1  0  0  0
 22  1  1  0  0  0
 22 24  1  0  0  0
M  END
>  <minimizedAffinity>
-10.3595

>  <minimizedRMSD>
3.05673

>  <molecular weight>
402.729

$$$$



 37 41  0  0  0  0  0  0  0  0999 V2000
   -1.1162   -8.0509   44.9948 C   0  0  0  0  0  0  0  0  0  0  0  0
   -1.2717   -6.7772   45.1174 N   0  0  0  0  0  0  0  0  0  0  0  0
   -2.5221   -6.4145   44.6941 O   0  0  0  0  0  0  0  0  0  0  0  0
   -3.2962   -7.5217   44.2540 C   0  0  0  0  0  0  0  0  0  0  0  0
   -2.3330   -8.7186   44.4329 C   0  0  0  0  0  0  0  0  0  0  0  0
   -3.7603   -7.2927   42.8116 C   0  0  0  0  0  0  0  0  0  0  0  0
   -5.1135   -6.5891   42.9435 C   0  0  0  0  0  0  0  0  0  0  0  0
   -5.5918   -6.9295   44.2809 N   0  0  0  0  0  0  0  0  0  0  0  0
   -6.9379   -6.6707   44.7244 C   0  0  0  0  0  0  0  0  0  0  0  0
   -7.7441   -6.0752   43.9578 O   0  0  0  0  0  0  0  0  0  0  0  0
   -4.5845   -7.6175   45.0751 C   0  0  0  0  0  0  0  0  0  0  0  0
    2.4228   -8.6613   46.2462 C   0  0  0  0  0  0  0  0  0  0  0  0
    2.5137  -10.0574   46.1133 C   0  0  0  0  0  0  0  0  0  0  0  0
    1.4393  -10.7868   45.6014 C   0  0  0  0  0  0  0  0  0  0  0  0
    0.2603  -10.1371   45.2298 C   0  0  0  0  0  0  0  0  0  0  0  0
    0.1394   -8.7437   45.3739 C   0  0  0  0  0  0  0  0  0  0  0  0
    1.2280   -8.0161   45.8907 C   0  0  0  0  0  0  0  0  0  0  0  0
    4.8363   -7.9804   46.2862 C   0  0  0  0  0  0  0  0  0  0  0  0
    3.5892   -7.8726   46.8315 N   0  0  0  0  0  0  0  0  0  0  0  0
    5.0250   -8.4443   45.1877 O   0  0  0  0  0  0  0  0  0  0  0  0
    3.2931   -7.2615   47.5928 H   0  0  0  0  0  0  0  0  0  0  0  0
    5.9491   -7.4582   47.1799 C   0  0  0  0  0  0  0  0  0  0  0  0
    6.3218   -6.0209   46.8976 C   0  0  0  0  0  0  0  0  0  0  0  0
    5.6042   -5.2758   45.9539 C   0  0  0  0  0  0  0  0  0  0  0  0
    5.9436   -3.9495   45.6781 C   0  0  0  0  0  0  0  0  0  0  0  0
    7.0180   -3.3517   46.3376 C   0  0  0  0  0  0  0  0  0  0  0  0
    7.7454   -4.0850   47.2765 C   0  0  0  0  0  0  0  0  0  0  0  0
    7.3974   -5.4083   47.5532 C   0  0  0  0  0  0  0  0  0  0  0  0
   -4.9645   -5.0957   42.7817 C   0  0  0  0  0  0  0  0  0  0  0  0
   -6.0648   -4.3155   42.3162 N   0  0  0  0  0  0  0  0  0  0  0  0
   -3.8648   -4.5311   43.0309 O   0  0  0  0  0  0  0  0  0  0  0  0
   -6.9268   -4.7485   42.1193 H   0  0  0  0  0  0  0  0  0  0  0  0
   -5.9620   -3.3443   42.1919 H   0  0  0  0  0  0  0  0  0  0  0  0
   -7.3896   -7.0310   46.1135 C   0  0  0  0  0  0  0  0  0  0  0  0
   -8.6495   -7.8866   46.2724 C   0  0  0  0  0  0  0  0  0  0  0  0
   -6.2679   -7.3577   47.0947 C   0  0  0  0  0  0  0  0  0  0  0  0
   -7.0417   -6.0534   47.2294 C   0  0  0  0  0  0  0  0  0  0  0  0
 20 18  2  0  0  0
 19 18  1  0  0  0
 18 22  1  0  0  0
 22 23  1  0  0  0
 23 24  2  0  0  0
 23 28  1  0  0  0
 24 25  1  0  0  0
 25 26  2  0  0  0
 26 27  1  0  0  0
 27 28  2  0  0  0
 12 13  2  0  0  0
 13 14  1  0  0  0
 14 15  2  0  0  0
 15 16  1  0  0  0
 16  1  1  0  0  0
  1  2  2  0  0  0
  2  3  1  0  0  0
  3  4  1  0  0  0
  4  5  1  0  0  0
  4  6  1  0  0  0
  6  7  1  0  0  0
  7 29  1  0  0  0
 29 30  1  0  0  0
 29 31  2  0  0  0
  7  8  1  0  0  0
  8  9  1  0  0  0
  9 10  2  0  0  0
  9 34  1  0  0  0
 34 35  1  0  0  0
 34 36  1  0  0  0
 36 37  1  0  0  0
  8 11  1  0  0  0
 16 17  2  0  0  0
 17 12  1  0  0  0
  5  1  1  0  0  0
 37 34  1  0  0  0
 11  4  1  0  0  0
 19 12  1  0  0  0
 19 21  1  0  0  0
 30 32  1  0  0  0
 30 33  1  0  0  0
M  END
>  <minimizedAffinity>
-10.3311

>  <minimizedRMSD>
4.34895

>  <molecular weight>
435.326

$$$$



 22 25  0  0  0  0  0  0  0  0999 V2000
    6.0913   -7.1904   47.2818 C   0  0  0  0  0  0  0  0  0  0  0  0
    4.8908   -6.8637   46.7195 N   0  0  0  0  0  0  0  0  0  0  0  0
    6.3696   -8.3201   47.6041 O   0  0  0  0  0  0  0  0  0  0  0  0
    4.5035   -5.9551   46.4743 H   0  0  0  0  0  0  0  0  0  0  0  0
    3.9122   -8.0333   46.4098 C   0  0  0  0  0  0  0  0  0  0  0  0
    4.1904   -8.6846   45.0546 C   0  0  0  0  0  0  0  0  0  0  0  0
    3.8985  -10.1879   44.8943 C   0  0  0  0  0  0  0  0  0  0  0  0
    2.6851  -10.7112   45.6731 C   0  0  0  0  0  0  0  0  0  0  0  0
    1.4812   -9.8224   45.5161 C   0  0  0  0  0  0  0  0  0  0  0  0
    0.1950  -10.3780   45.6181 C   0  0  0  0  0  0  0  0  0  0  0  0
   -0.9358   -9.5635   45.5267 C   0  0  0  0  0  0  0  0  0  0  0  0
   -0.7932   -8.1871   45.3447 C   0  0  0  0  0  0  0  0  0  0  0  0
    0.4805   -7.6208   45.2535 C   0  0  0  0  0  0  0  0  0  0  0  0
    1.6256   -8.4280   45.3371 C   0  0  0  0  0  0  0  0  0  0  0  0
    2.9796   -7.7699   45.2270 C   0  0  0  0  0  0  0  0  0  0  0  0
    7.0354   -6.0116   47.4520 C   0  0  0  0  0  0  0  0  0  0  0  0
    6.5485   -4.7497   46.7776 C   0  0  0  0  0  0  0  0  0  0  0  0
    5.7030   -4.8233   45.6638 C   0  0  0  0  0  0  0  0  0  0  0  0
    5.2527   -3.6650   45.0268 C   0  0  0  0  0  0  0  0  0  0  0  0
    5.6536   -2.4117   45.4908 C   0  0  0  0  0  0  0  0  0  0  0  0
    6.5010   -2.3243   46.5965 C   0  0  0  0  0  0  0  0  0  0  0  0
    6.9425   -3.4853   47.2336 C   0  0  0  0  0  0  0  0  0  0  0  0
  3  1  2  0  0  0
  2  1  1  0  0  0
  1 16  1  0  0  0
 16 17  1  0  0  0
 17 18  2  0  0  0
 17 22  1  0  0  0
 18 19  1  0  0  0
 19 20  2  0  0  0
 20 21  1  0  0  0
 21 22  2  0  0  0
  5  6  1  0  0  0
  6  7  1  0  0  0
  7  8  1  0  0  0
  8  9  1  0  0  0
  9 10  2  0  0  0
 10 11  1  0  0  0
 11 12  2  0  0  0
 12 13  1  0  0  0
 13 14  2  0  0  0
 14 15  1  0  0  0
 15  5  1  0  0  0
 15  6  1  0  0  0
 14  9  1  0  0  0
  2  5  1  0  0  0
  2  4  1  0  0  0
M  END
>  <minimizedAffinity>
-10.2595

>  <minimizedRMSD>
2.53841

>  <molecular weight>
259.217

$$$$



 35 38  0  0  0  0  0  0  0  0999 V2000
   -0.2583   -8.3572   45.5258 C   0  0  0  0  0  0  0  0  0  0  0  0
   -0.4574   -7.0845   45.4898 N   0  0  0  0  0  0  0  0  0  0  0  0
   -1.7741   -6.8233   45.2191 O   0  0  0  0  0  0  0  0  0  0  0  0
   -2.5466   -8.0038   45.0528 C   0  0  0  0  0  0  0  0  0  0  0  0
   -1.5117   -9.1341   45.2652 C   0  0  0  0  0  0  0  0  0  0  0  0
   -3.2070   -8.0008   43.6703 C   0  0  0  0  0  0  0  0  0  0  0  0
   -4.5675   -7.3309   43.8907 C   0  0  0  0  0  0  0  0  0  0  0  0
   -4.8388   -7.4620   45.3188 N   0  0  0  0  0  0  0  0  0  0  0  0
   -6.0183   -6.9303   45.9527 C   0  0  0  0  0  0  0  0  0  0  0  0
   -6.7881   -6.1753   45.2973 O   0  0  0  0  0  0  0  0  0  0  0  0
   -3.7074   -8.0133   46.0497 C   0  0  0  0  0  0  0  0  0  0  0  0
    3.3666   -8.7242   46.6156 C   0  0  0  0  0  0  0  0  0  0  0  0
    3.5983  -10.0771   46.3152 C   0  0  0  0  0  0  0  0  0  0  0  0
    2.5882  -10.8538   45.7449 C   0  0  0  0  0  0  0  0  0  0  0  0
    1.3351  -10.2967   45.4812 C   0  0  0  0  0  0  0  0  0  0  0  0
    1.0740   -8.9513   45.7949 C   0  0  0  0  0  0  0  0  0  0  0  0
    2.0984   -8.1755   46.3704 C   0  0  0  0  0  0  0  0  0  0  0  0
    5.6371   -7.6564   46.6077 C   0  0  0  0  0  0  0  0  0  0  0  0
    4.4526   -7.8844   47.2473 N   0  0  0  0  0  0  0  0  0  0  0  0
    5.8141   -7.9465   45.4492 O   0  0  0  0  0  0  0  0  0  0  0  0
    4.1786   -7.5076   48.1573 H   0  0  0  0  0  0  0  0  0  0  0  0
    6.6950   -7.0018   47.4807 C   0  0  0  0  0  0  0  0  0  0  0  0
    6.9224   -5.5430   47.1572 C   0  0  0  0  0  0  0  0  0  0  0  0
    6.0772   -4.8765   46.2616 C   0  0  0  0  0  0  0  0  0  0  0  0
    6.2815   -3.5310   45.9482 C   0  0  0  0  0  0  0  0  0  0  0  0
    7.3460   -2.8341   46.5206 C   0  0  0  0  0  0  0  0  0  0  0  0
    8.1995   -3.4881   47.4106 C   0  0  0  0  0  0  0  0  0  0  0  0
    7.9866   -4.8314   47.7256 C   0  0  0  0  0  0  0  0  0  0  0  0
   -5.6499   -7.9853   43.0706 C   0  0  0  0  0  0  0  0  0  0  0  0
   -6.5396   -7.1936   42.2834 N   0  0  0  0  0  0  0  0  0  0  0  0
   -5.7762   -9.2394   43.0792 O   0  0  0  0  0  0  0  0  0  0  0  0
   -6.4470   -6.2135   42.2717 H   0  0  0  0  0  0  0  0  0  0  0  0
   -7.2457   -7.6277   41.7522 H   0  0  0  0  0  0  0  0  0  0  0  0
   -6.3138   -7.2070   47.4048 C   0  0  0  0  0  0  0  0  0  0  0  0
   -7.0782   -6.0599   48.0624 C   0  0  0  0  0  0  0  0  0  0  0  0
 20 18  2  0  0  0
 19 18  1  0  0  0
 18 22  1  0  0  0
 22 23  1  0  0  0
 23 24  2  0  0  0
 23 28  1  0  0  0
 24 25  1  0  0  0
 25 26  2  0  0  0
 26 27  1  0  0  0
 27 28  2  0  0  0
 12 13  2  0  0  0
 13 14  1  0  0  0
 14 15  2  0  0  0
 15 16  1  0  0  0
 16  1  1  0  0  0
  1  2  2  0  0  0
  2  3  1  0  0  0
  3  4  1  0  0  0
  4  5  1  0  0  0
  4  6  1  0  0  0
  6  7  1  0  0  0
  7 29  1  0  0  0
 29 30  1  0  0  0
 29 31  2  0  0  0
  7  8  1  0  0  0
  8  9  1  0  0  0
  9 10  2  0  0  0
  9 34  1  0  0  0
 34 35  1  0  0  0
  8 11  1  0  0  0
 16 17  2  0  0  0
 17 12  1  0  0  0
  5  1  1  0  0  0
 11  4  1  0  0  0
 19 12  1  0  0  0
 19 21  1  0  0  0
 30 32  1  0  0  0
 30 33  1  0  0  0
M  END
>  <minimizedAffinity>
-10.234

>  <minimizedRMSD>
2.87336

>  <molecular weight>
411.305

$$$$



 37 40  0  0  0  0  0  0  0  0999 V2000
   -0.5891   -8.2257   45.1437 C   0  0  0  0  0  0  0  0  0  0  0  0
   -0.7711   -6.9511   45.1849 N   0  0  0  0  0  0  0  0  0  0  0  0
   -2.0525   -6.6507   44.8055 O   0  0  0  0  0  0  0  0  0  0  0  0
   -2.8332   -7.8067   44.5288 C   0  0  0  0  0  0  0  0  0  0  0  0
   -1.8110   -8.9606   44.6749 C   0  0  0  0  0  0  0  0  0  0  0  0
   -3.4653   -7.6965   43.1351 C   0  0  0  0  0  0  0  0  0  0  0  0
   -4.8875   -7.1739   43.3623 C   0  0  0  0  0  0  0  0  0  0  0  0
   -5.1584   -7.3648   44.7849 N   0  0  0  0  0  0  0  0  0  0  0  0
   -6.4832   -7.2672   45.3443 C   0  0  0  0  0  0  0  0  0  0  0  0
   -7.4376   -6.9329   44.5943 O   0  0  0  0  0  0  0  0  0  0  0  0
   -4.0070   -7.8816   45.5115 C   0  0  0  0  0  0  0  0  0  0  0  0
    2.9556   -8.6836   46.4371 C   0  0  0  0  0  0  0  0  0  0  0  0
    3.1300  -10.0647   46.2578 C   0  0  0  0  0  0  0  0  0  0  0  0
    2.1038  -10.8358   45.7070 C   0  0  0  0  0  0  0  0  0  0  0  0
    0.8941  -10.2426   45.3419 C   0  0  0  0  0  0  0  0  0  0  0  0
    0.6958   -8.8620   45.5216 C   0  0  0  0  0  0  0  0  0  0  0  0
    1.7341   -8.0911   46.0764 C   0  0  0  0  0  0  0  0  0  0  0  0
    5.2851   -7.7861   46.5128 C   0  0  0  0  0  0  0  0  0  0  0  0
    4.0424   -7.8640   47.0729 N   0  0  0  0  0  0  0  0  0  0  0  0
    5.5089   -8.1416   45.3810 O   0  0  0  0  0  0  0  0  0  0  0  0
    3.7333   -7.3679   47.9133 H   0  0  0  0  0  0  0  0  0  0  0  0
    6.3443   -7.2074   47.4364 C   0  0  0  0  0  0  0  0  0  0  0  0
    6.6968   -5.7718   47.1212 C   0  0  0  0  0  0  0  0  0  0  0  0
    5.9253   -5.0365   46.2129 C   0  0  0  0  0  0  0  0  0  0  0  0
    6.2453   -3.7120   45.9070 C   0  0  0  0  0  0  0  0  0  0  0  0
    7.3534   -3.1062   46.4999 C   0  0  0  0  0  0  0  0  0  0  0  0
    8.1343   -3.8297   47.4027 C   0  0  0  0  0  0  0  0  0  0  0  0
    7.8059   -5.1513   47.7100 C   0  0  0  0  0  0  0  0  0  0  0  0
   -5.0220   -5.7200   42.9775 C   0  0  0  0  0  0  0  0  0  0  0  0
   -3.9003   -4.8362   43.0114 N   0  0  0  0  0  0  0  0  0  0  0  0
   -6.1444   -5.2764   42.6169 O   0  0  0  0  0  0  0  0  0  0  0  0
   -3.0179   -5.1712   43.2915 H   0  0  0  0  0  0  0  0  0  0  0  0
   -4.0096   -3.8920   42.7547 H   0  0  0  0  0  0  0  0  0  0  0  0
   -6.7201   -7.5110   46.7869 C   0  0  0  0  0  0  0  0  0  0  0  0
   -7.0532   -6.5817   47.6992 C   0  0  0  0  0  0  0  0  0  0  0  0
   -7.3052   -5.1239   47.4177 C   0  0  0  0  0  0  0  0  0  0  0  0
   -6.9729   -4.2607   48.6326 C   0  0  0  0  0  0  0  0  0  0  0  0
 20 18  2  0  0  0
 19 18  1  0  0  0
 18 22  1  0  0  0
 22 23  1  0  0  0
 23 24  2  0  0  0
 23 28  1  0  0  0
 24 25  1  0  0  0
 25 26  2  0  0  0
 26 27  1  0  0  0
 27 28  2  0  0  0
 12 13  2  0  0  0
 13 14  1  0  0  0
 14 15  2  0  0  0
 15 16  1  0  0  0
 16  1  1  0  0  0
  1  2  2  0  0  0
  2  3  1  0  0  0
  3  4  1  0  0  0
  4  5  1  0  0  0
  4  6  1  0  0  0
  6  7  1  0  0  0
  7 29  1  0  0  0
 29 30  1  0  0  0
 29 31  2  0  0  0
  7  8  1  0  0  0
  8  9  1  0  0  0
  9 10  2  0  0  0
  9 34  1  0  0  0
 34 35  2  0  0  0
 35 36  1  0  0  0
 36 37  1  0  0  0
  8 11  1  0  0  0
 16 17  2  0  0  0
 17 12  1  0  0  0
  5  1  1  0  0  0
 11  4  1  0  0  0
 19 12  1  0  0  0
 19 21  1  0  0  0
 30 32  1  0  0  0
 30 33  1  0  0  0
M  END
>  <minimizedAffinity>
-10.2301

>  <minimizedRMSD>
3.56229

>  <molecular weight>
435.326

$$$$



 35 39  0  0  0  0  0  0  0  0999 V2000
   -0.2575   -8.2063   45.4435 C   0  0  0  0  0  0  0  0  0  0  0  0
   -0.4441   -6.8733   45.5295 N   0  0  0  0  0  0  0  0  0  0  0  0
   -1.6794   -6.6840   45.1802 O   0  0  0  0  0  0  0  0  0  0  0  0
   -2.2369   -7.8344   44.8927 C   0  0  0  0  0  0  0  0  0  0  0  0
   -1.3715   -8.8554   45.0408 N   0  0  0  0  0  0  0  0  0  0  0  0
   -3.6574   -7.9980   44.4344 C   0  0  0  0  0  0  0  0  0  0  0  0
   -3.7965   -7.6621   42.9262 C   0  0  0  0  0  0  0  0  0  0  0  0
   -5.1065   -6.9351   42.5698 C   0  0  0  0  0  0  0  0  0  0  0  0
   -6.2896   -7.4267   43.4110 C   0  0  0  0  0  0  0  0  0  0  0  0
   -5.9881   -7.3526   44.8487 N   0  0  0  0  0  0  0  0  0  0  0  0
   -7.0168   -7.6629   45.8009 C   0  0  0  0  0  0  0  0  0  0  0  0
   -6.8494   -8.6225   46.6014 O   0  0  0  0  0  0  0  0  0  0  0  0
   -4.6058   -7.1607   45.3051 C   0  0  0  0  0  0  0  0  0  0  0  0
   -8.2610   -6.8716   45.8632 C   0  0  0  0  0  0  0  0  0  0  0  0
   -8.2894   -5.4783   46.0468 C   0  0  0  0  0  0  0  0  0  0  0  0
   -9.5710   -4.9495   46.0979 C   0  0  0  0  0  0  0  0  0  0  0  0
  -10.6646   -6.2130   45.9286 S   0  0  0  0  0  0  0  0  0  0  0  0
   -9.5287   -7.4427   45.7876 C   0  0  0  0  0  0  0  0  0  0  0  0
    3.3023   -8.7985   46.6240 C   0  0  0  0  0  0  0  0  0  0  0  0
    3.4516  -10.1658   46.3346 C   0  0  0  0  0  0  0  0  0  0  0  0
    2.4063  -10.8785   45.7441 C   0  0  0  0  0  0  0  0  0  0  0  0
    1.1997  -10.2411   45.4473 C   0  0  0  0  0  0  0  0  0  0  0  0
    1.0224   -8.8807   45.7502 C   0  0  0  0  0  0  0  0  0  0  0  0
    2.0784   -8.1694   46.3477 C   0  0  0  0  0  0  0  0  0  0  0  0
    5.5911   -7.7743   46.6077 C   0  0  0  0  0  0  0  0  0  0  0  0
    4.4274   -8.0280   47.2752 N   0  0  0  0  0  0  0  0  0  0  0  0
    5.7192   -7.9852   45.4259 O   0  0  0  0  0  0  0  0  0  0  0  0
    4.1955   -7.7170   48.2210 H   0  0  0  0  0  0  0  0  0  0  0  0
    6.6928   -7.1990   47.4825 C   0  0  0  0  0  0  0  0  0  0  0  0
    6.9720   -5.7381   47.2139 C   0  0  0  0  0  0  0  0  0  0  0  0
    6.1249   -4.9970   46.3809 C   0  0  0  0  0  0  0  0  0  0  0  0
    6.3764   -3.6486   46.1184 C   0  0  0  0  0  0  0  0  0  0  0  0
    7.4907   -3.0237   46.6792 C   0  0  0  0  0  0  0  0  0  0  0  0
    8.3465   -3.7524   47.5067 C   0  0  0  0  0  0  0  0  0  0  0  0
    8.0864   -5.0983   47.7712 C   0  0  0  0  0  0  0  0  0  0  0  0
 27 25  2  0  0  0
 26 25  1  0  0  0
 25 29  1  0  0  0
 29 30  1  0  0  0
 30 31  2  0  0  0
 30 35  1  0  0  0
 31 32  1  0  0  0
 32 33  2  0  0  0
 33 34  1  0  0  0
 34 35  2  0  0  0
 19 20  2  0  0  0
 20 21  1  0  0  0
 21 22  2  0  0  0
 22 23  1  0  0  0
 23  1  1  0  0  0
  1  2  2  0  0  0
  2  3  1  0  0  0
  3  4  1  0  0  0
  4  6  1  0  0  0
  6  7  1  0  0  0
  7  8  1  0  0  0
  8  9  1  0  0  0
  9 10  1  0  0  0
 10 11  1  0  0  0
 11 12  2  0  0  0
 11 14  1  0  0  0
 14 15  1  0  0  0
 15 16  2  0  0  0
 16 17  1  0  0  0
 17 18  1  0  0  0
 10 13  1  0  0  0
  4  5  2  0  0  0
 23 24  2  0  0  0
 24 19  1  0  0  0
  5  1  1  0  0  0
 13  6  1  0  0  0
 18 14  2  0  0  0
 26 19  1  0  0  0
 26 28  1  0  0  0
M  END
>  <minimizedAffinity>
-10.2021

>  <minimizedRMSD>
3.35751

>  <molecular weight>
449.376

$$$$
