


 40 44  0  0  0  0  0  0  0  0999 V2000
    1.0887   -8.8479   45.0300 C   0  0  0  0  0  0  0  0  0  0  0  0
    0.4080   -7.6181   44.9582 C   0  0  0  0  0  0  0  0  0  0  0  0
   -0.9420   -7.5311   45.3056 C   0  0  0  0  0  0  0  0  0  0  0  0
   -1.6475   -8.6735   45.7170 C   0  0  0  0  0  0  0  0  0  0  0  0
   -0.9633   -9.8945   45.8235 C   0  0  0  0  0  0  0  0  0  0  0  0
    0.3890   -9.9885   45.4753 C   0  0  0  0  0  0  0  0  0  0  0  0
    1.1790  -11.5519   45.6204 Cl  0  0  0  0  0  0  0  0  0  0  0  0
   -3.0916   -8.5991   46.0402 C   0  0  0  0  0  0  0  0  0  0  0  0
   -3.5686   -9.3984   46.8901 O   0  0  0  0  0  0  0  0  0  0  0  0
   -3.9615   -7.6374   45.4060 N   0  0  0  0  0  0  0  0  0  0  0  0
   -3.8737   -7.3669   43.9683 C   0  0  0  0  0  0  0  0  0  0  0  0
   -5.0736   -7.9853   43.2399 C   0  0  0  0  0  0  0  0  0  0  0  0
   -6.4478   -7.7375   43.9166 C   0  0  0  0  0  0  0  0  0  0  0  0
   -6.4060   -7.8041   45.4709 C   0  0  0  0  0  0  0  0  0  0  0  0
   -5.1606   -7.1595   46.0915 C   0  0  0  0  0  0  0  0  0  0  0  0
   -7.1399   -6.5455   43.3436 N   0  0  0  0  0  0  0  0  0  0  0  0
   -8.6073   -6.6090   43.5364 C   0  0  0  0  0  0  0  0  0  0  0  0
   -9.3041   -5.5220   42.7115 C   0  0  0  0  0  0  0  0  0  0  0  0
   -8.7622   -4.1368   43.0719 C   0  0  0  0  0  0  0  0  0  0  0  0
   -7.2381   -4.1108   42.9505 C   0  0  0  0  0  0  0  0  0  0  0  0
   -6.6167   -5.2350   43.7836 C   0  0  0  0  0  0  0  0  0  0  0  0
    2.4420   -8.9682   44.5525 N   0  0  0  0  0  0  0  0  0  0  0  0
    2.5914   -9.4229   43.6922 H   0  0  0  0  0  0  0  0  0  0  0  0
    5.8537   -7.4813   46.6101 C   0  0  0  0  0  0  0  0  0  0  0  0
    4.8348   -8.1471   47.3128 C   0  0  0  0  0  0  0  0  0  0  0  0
    3.7097   -8.6379   46.6426 C   0  0  0  0  0  0  0  0  0  0  0  0
    3.5838   -8.4642   45.2570 C   0  0  0  0  0  0  0  0  0  0  0  0
    4.5962   -7.8026   44.5506 C   0  0  0  0  0  0  0  0  0  0  0  0
    5.7114   -7.2926   45.2221 C   0  0  0  0  0  0  0  0  0  0  0  0
    8.3217   -7.0650   46.8833 C   0  0  0  0  0  0  0  0  0  0  0  0
    7.0465   -6.9205   47.3494 N   0  0  0  0  0  0  0  0  0  0  0  0
    8.6090   -7.8548   46.0166 O   0  0  0  0  0  0  0  0  0  0  0  0
    6.7841   -6.4741   48.2324 H   0  0  0  0  0  0  0  0  0  0  0  0
    9.3303   -6.1410   47.5455 C   0  0  0  0  0  0  0  0  0  0  0  0
    8.9739   -4.6771   47.4245 C   0  0  0  0  0  0  0  0  0  0  0  0
    7.7961   -4.1854   48.0004 C   0  0  0  0  0  0  0  0  0  0  0  0
    7.4514   -2.8367   47.8888 C   0  0  0  0  0  0  0  0  0  0  0  0
    8.2788   -1.9600   47.1863 C   0  0  0  0  0  0  0  0  0  0  0  0
    9.4529   -2.4383   46.6024 C   0  0  0  0  0  0  0  0  0  0  0  0
    9.7960   -3.7861   46.7229 C   0  0  0  0  0  0  0  0  0  0  0  0
 32 30  2  0  0  0
 31 30  1  0  0  0
 30 34  1  0  0  0
 34 35  1  0  0  0
 35 36  2  0  0  0
 35 40  1  0  0  0
 36 37  1  0  0  0
 37 38  2  0  0  0
 38 39  1  0  0  0
 39 40  2  0  0  0
 24 25  2  0  0  0
 25 26  1  0  0  0
 26 27  2  0  0  0
 27 22  1  0  0  0
 22  1  1  0  0  0
  1  2  2  0  0  0
  2  3  1  0  0  0
  3  4  2  0  0  0
  4  8  1  0  0  0
  8  9  2  0  0  0
  8 10  1  0  0  0
 10 11  1  0  0  0
 11 12  1  0  0  0
 12 13  1  0  0  0
 13 16  1  0  0  0
 16 17  1  0  0  0
 17 18  1  0  0  0
 18 19  1  0  0  0
 19 20  1  0  0  0
 20 21  1  0  0  0
 13 14  1  0  0  0
 14 15  1  0  0  0
  4  5  1  0  0  0
  5  6  2  0  0  0
  6  7  1  0  0  0
 27 28  1  0  0  0
 28 29  2  0  0  0
 29 24  1  0  0  0
  6  1  1  0  0  0
 15 10  1  0  0  0
 21 16  1  0  0  0
 31 24  1  0  0  0
 31 33  1  0  0  0
 22 23  1  0  0  0
M  END
>  <CNNaffinity>
8.65468

>  <CNNscore>
0.902469

>  <minimizedAffinity>
-4.34086

>  <minimizedRMSD>
2.37474

>  <molecular weight>
497.826

$$$$



 35 38  0  0  0  0  0  0  0  0999 V2000
    4.3525   -8.7962   45.2994 C   0  0  0  0  0  0  0  0  0  0  0  0
    4.6568   -9.7673   44.3470 C   0  0  0  0  0  0  0  0  0  0  0  0
    3.2436  -10.6104   44.0039 S   0  0  0  0  0  0  0  0  0  0  0  0
    2.3128   -9.7171   45.0836 C   0  0  0  0  0  0  0  0  0  0  0  0
    3.0515   -8.7664   45.6986 N   0  0  0  0  0  0  0  0  0  0  0  0
    0.8314   -9.8815   45.2733 C   0  0  0  0  0  0  0  0  0  0  0  0
    0.5191  -10.9409   46.3478 C   0  0  0  0  0  0  0  0  0  0  0  0
   -0.9865  -11.0388   46.6925 C   0  0  0  0  0  0  0  0  0  0  0  0
   -1.8585  -10.0318   45.9302 C   0  0  0  0  0  0  0  0  0  0  0  0
   -1.2419   -8.6980   45.9581 N   0  0  0  0  0  0  0  0  0  0  0  0
   -1.9933   -7.5502   46.3919 C   0  0  0  0  0  0  0  0  0  0  0  0
   -1.4767   -6.7457   47.2128 O   0  0  0  0  0  0  0  0  0  0  0  0
    0.1857   -8.5369   45.6470 C   0  0  0  0  0  0  0  0  0  0  0  0
   -3.3529   -7.2692   45.8928 C   0  0  0  0  0  0  0  0  0  0  0  0
   -3.8322   -7.8183   44.7685 C   0  0  0  0  0  0  0  0  0  0  0  0
   -5.1792   -7.5077   44.2266 C   0  0  0  0  0  0  0  0  0  0  0  0
   -6.2560   -7.2150   45.0894 C   0  0  0  0  0  0  0  0  0  0  0  0
   -7.5254   -6.9402   44.5741 C   0  0  0  0  0  0  0  0  0  0  0  0
   -7.7415   -6.9595   43.1962 C   0  0  0  0  0  0  0  0  0  0  0  0
   -6.6902   -7.2602   42.3290 C   0  0  0  0  0  0  0  0  0  0  0  0
   -5.4134   -7.5395   42.8324 C   0  0  0  0  0  0  0  0  0  0  0  0
   -4.1279   -7.8893   41.6792 Cl  0  0  0  0  0  0  0  0  0  0  0  0
    5.3646   -7.8316   45.8399 C   0  0  0  0  0  0  0  0  0  0  0  0
    5.8651   -8.2840   47.2151 C   0  0  0  0  0  0  0  0  0  0  0  0
    8.2300   -7.4622   47.3879 C   0  0  0  0  0  0  0  0  0  0  0  0
    6.9203   -7.3052   47.7403 N   0  0  0  0  0  0  0  0  0  0  0  0
    8.6120   -8.3841   46.7085 O   0  0  0  0  0  0  0  0  0  0  0  0
    6.5361   -6.5809   48.3515 H   0  0  0  0  0  0  0  0  0  0  0  0
    9.1477   -6.3731   47.9184 C   0  0  0  0  0  0  0  0  0  0  0  0
    8.9769   -5.0472   47.2133 C   0  0  0  0  0  0  0  0  0  0  0  0
    7.7134   -4.4503   47.1244 C   0  0  0  0  0  0  0  0  0  0  0  0
    7.5409   -3.2295   46.4686 C   0  0  0  0  0  0  0  0  0  0  0  0
    8.6336   -2.5921   45.8801 C   0  0  0  0  0  0  0  0  0  0  0  0
    9.8977   -3.1791   45.9563 C   0  0  0  0  0  0  0  0  0  0  0  0
   10.0655   -4.3962   46.6191 C   0  0  0  0  0  0  0  0  0  0  0  0
 27 25  2  0  0  0
 26 25  1  0  0  0
 25 29  1  0  0  0
 29 30  1  0  0  0
 30 31  2  0  0  0
 30 35  1  0  0  0
 31 32  1  0  0  0
 32 33  2  0  0  0
 33 34  1  0  0  0
 34 35  2  0  0  0
 24 23  1  0  0  0
 23  1  1  0  0  0
  1  2  2  0  0  0
  2  3  1  0  0  0
  3  4  1  0  0  0
  4  6  1  0  0  0
  6  7  1  0  0  0
  7  8  1  0  0  0
  8  9  1  0  0  0
  9 10  1  0  0  0
 10 11  1  0  0  0
 11 12  2  0  0  0
 11 14  1  0  0  0
 14 15  2  0  0  0
 15 16  1  0  0  0
 16 17  2  0  0  0
 17 18  1  0  0  0
 18 19  2  0  0  0
 19 20  1  0  0  0
 20 21  2  0  0  0
 21 22  1  0  0  0
 10 13  1  0  0  0
  4  5  2  0  0  0
  5  1  1  0  0  0
 13  6  1  0  0  0
 21 16  1  0  0  0
 26 24  1  0  0  0
 26 28  1  0  0  0
M  END
>  <CNNaffinity>
8.52331

>  <CNNscore>
0.55018

>  <minimizedAffinity>
9.59536

>  <minimizedRMSD>
1.36438

>  <molecular weight>
466.834

$$$$



 37 40  0  0  0  0  0  0  0  0999 V2000
    1.7165   -7.7058   44.9929 N   0  0  0  0  0  0  0  0  0  0  0  0
    2.5350   -8.2067   44.7727 H   0  0  0  0  0  0  0  0  0  0  0  0
    0.4601   -8.3955   45.0399 C   0  0  0  0  0  0  0  0  0  0  0  0
   -0.6916   -7.7146   44.7825 N   0  0  0  0  0  0  0  0  0  0  0  0
   -1.9014   -8.3296   44.8007 C   0  0  0  0  0  0  0  0  0  0  0  0
   -1.9772   -9.6573   45.0971 N   0  0  0  0  0  0  0  0  0  0  0  0
   -0.8597  -10.3785   45.3672 C   0  0  0  0  0  0  0  0  0  0  0  0
    0.3943   -9.7668   45.3393 C   0  0  0  0  0  0  0  0  0  0  0  0
    1.8255  -10.7236   45.6917 Cl  0  0  0  0  0  0  0  0  0  0  0  0
   -3.0813   -7.5752   44.4902 N   0  0  0  0  0  0  0  0  0  0  0  0
   -3.0161   -6.5941   44.4419 H   0  0  0  0  0  0  0  0  0  0  0  0
   -4.3816   -8.2082   44.2415 C   0  0  0  0  0  0  0  0  0  0  0  0
   -5.1871   -7.4700   43.1674 C   0  0  0  0  0  0  0  0  0  0  0  0
   -6.6470   -7.6353   43.5696 C   0  0  0  0  0  0  0  0  0  0  0  0
   -6.6228   -7.9942   44.9774 N   0  0  0  0  0  0  0  0  0  0  0  0
   -7.8126   -8.1511   45.7672 C   0  0  0  0  0  0  0  0  0  0  0  0
   -7.7318   -8.4438   47.2334 C   0  0  0  0  0  0  0  0  0  0  0  0
   -8.9449   -8.0559   45.2214 O   0  0  0  0  0  0  0  0  0  0  0  0
   -5.2751   -8.1982   45.4839 C   0  0  0  0  0  0  0  0  0  0  0  0
    1.8042   -6.2703   45.2663 C   0  0  0  0  0  0  0  0  0  0  0  0
    4.9548   -4.1259   45.5340 C   0  0  0  0  0  0  0  0  0  0  0  0
    5.8733   -5.0659   46.0407 C   0  0  0  0  0  0  0  0  0  0  0  0
    5.4739   -6.3820   46.2850 C   0  0  0  0  0  0  0  0  0  0  0  0
    4.1563   -6.7732   46.0373 C   0  0  0  0  0  0  0  0  0  0  0  0
    3.2274   -5.8497   45.5297 C   0  0  0  0  0  0  0  0  0  0  0  0
    3.6312   -4.5247   45.2950 C   0  0  0  0  0  0  0  0  0  0  0  0
    6.2176   -2.3590   44.2939 C   0  0  0  0  0  0  0  0  0  0  0  0
    5.3751   -2.6864   45.3172 N   0  0  0  0  0  0  0  0  0  0  0  0
    6.3809   -3.0744   43.3352 O   0  0  0  0  0  0  0  0  0  0  0  0
    4.9128   -2.0422   45.9611 H   0  0  0  0  0  0  0  0  0  0  0  0
    6.9141   -1.0198   44.4710 C   0  0  0  0  0  0  0  0  0  0  0  0
    6.0097    0.0599   45.0192 C   0  0  0  0  0  0  0  0  0  0  0  0
    5.4552   -0.0635   46.2990 C   0  0  0  0  0  0  0  0  0  0  0  0
    4.6116    0.9232   46.8138 C   0  0  0  0  0  0  0  0  0  0  0  0
    4.3008    2.0465   46.0468 C   0  0  0  0  0  0  0  0  0  0  0  0
    4.8421    2.1791   44.7671 C   0  0  0  0  0  0  0  0  0  0  0  0
    5.6903    1.1930   44.2601 C   0  0  0  0  0  0  0  0  0  0  0  0
 29 27  2  0  0  0
 28 27  1  0  0  0
 27 31  1  0  0  0
 31 32  1  0  0  0
 32 33  2  0  0  0
 32 37  1  0  0  0
 33 34  1  0  0  0
 34 35  2  0  0  0
 35 36  1  0  0  0
 36 37  2  0  0  0
 21 22  2  0  0  0
 22 23  1  0  0  0
 23 24  2  0  0  0
 24 25  1  0  0  0
 25 20  1  0  0  0
 20  1  1  0  0  0
  1  3  1  0  0  0
  3  4  2  0  0  0
  4  5  1  0  0  0
  5 10  1  0  0  0
 10 12  1  0  0  0
 12 13  1  0  0  0
 13 14  1  0  0  0
 14 15  1  0  0  0
 15 16  1  0  0  0
 16 17  1  0  0  0
 16 18  2  0  0  0
 15 19  1  0  0  0
  5  6  2  0  0  0
  6  7  1  0  0  0
  7  8  2  0  0  0
  8  9  1  0  0  0
 25 26  2  0  0  0
 26 21  1  0  0  0
  8  3  1  0  0  0
 19 12  1  0  0  0
 28 21  1  0  0  0
 28 30  1  0  0  0
  1  2  1  0  0  0
 10 11  1  0  0  0
M  END
>  <CNNaffinity>
8.47719

>  <CNNscore>
0.877535

>  <minimizedAffinity>
1.02206

>  <minimizedRMSD>
4.50691

>  <molecular weight>
454.783

$$$$



 29 32  0  0  0  0  0  0  0  0999 V2000
    3.8714   -8.5164   45.9438 C   0  0  0  0  0  0  0  0  0  0  0  0
    3.8555   -9.9095   45.9800 C   0  0  0  0  0  0  0  0  0  0  0  0
    2.2704  -10.4112   45.7337 S   0  0  0  0  0  0  0  0  0  0  0  0
    1.6741   -8.8415   45.5931 C   0  0  0  0  0  0  0  0  0  0  0  0
    2.6631   -7.9303   45.7228 N   0  0  0  0  0  0  0  0  0  0  0  0
    0.2412   -8.4715   45.3210 C   0  0  0  0  0  0  0  0  0  0  0  0
   -0.7109   -9.5061   45.9469 C   0  0  0  0  0  0  0  0  0  0  0  0
   -2.1670   -9.1599   45.6172 C   0  0  0  0  0  0  0  0  0  0  0  0
   -2.3597   -8.9285   44.1757 N   0  0  0  0  0  0  0  0  0  0  0  0
   -3.6908   -8.7299   43.6535 C   0  0  0  0  0  0  0  0  0  0  0  0
   -3.9185   -8.8934   42.4234 O   0  0  0  0  0  0  0  0  0  0  0  0
   -1.2140   -9.0396   43.2597 C   0  0  0  0  0  0  0  0  0  0  0  0
   -0.0075   -8.2591   43.8018 C   0  0  0  0  0  0  0  0  0  0  0  0
   -4.8371   -8.3806   44.5621 C   0  0  0  0  0  0  0  0  0  0  0  0
   -4.8815   -6.9184   44.9811 C   0  0  0  0  0  0  0  0  0  0  0  0
   -5.8777   -7.4435   43.9637 C   0  0  0  0  0  0  0  0  0  0  0  0
    5.1214   -7.7058   46.1116 C   0  0  0  0  0  0  0  0  0  0  0  0
    5.7370   -7.9236   47.4971 C   0  0  0  0  0  0  0  0  0  0  0  0
    8.0352   -6.9820   47.1603 C   0  0  0  0  0  0  0  0  0  0  0  0
    6.8183   -6.8665   47.7683 N   0  0  0  0  0  0  0  0  0  0  0  0
    8.3036   -7.8939   46.4160 O   0  0  0  0  0  0  0  0  0  0  0  0
    6.5161   -6.1354   48.4139 H   0  0  0  0  0  0  0  0  0  0  0  0
    9.0042   -5.8611   47.4988 C   0  0  0  0  0  0  0  0  0  0  0  0
    8.4299   -4.4816   47.2722 C   0  0  0  0  0  0  0  0  0  0  0  0
    7.3132   -4.0514   47.9993 C   0  0  0  0  0  0  0  0  0  0  0  0
    6.7681   -2.7823   47.7935 C   0  0  0  0  0  0  0  0  0  0  0  0
    7.3287   -1.9267   46.8446 C   0  0  0  0  0  0  0  0  0  0  0  0
    8.4386   -2.3451   46.1088 C   0  0  0  0  0  0  0  0  0  0  0  0
    8.9835   -3.6124   46.3235 C   0  0  0  0  0  0  0  0  0  0  0  0
 21 19  2  0  0  0
 20 19  1  0  0  0
 19 23  1  0  0  0
 23 24  1  0  0  0
 24 25  2  0  0  0
 24 29  1  0  0  0
 25 26  1  0  0  0
 26 27  2  0  0  0
 27 28  1  0  0  0
 28 29  2  0  0  0
 18 17  1  0  0  0
 17  1  1  0  0  0
  1  2  2  0  0  0
  2  3  1  0  0  0
  3  4  1  0  0  0
  4  6  1  0  0  0
  6  7  1  0  0  0
  7  8  1  0  0  0
  8  9  1  0  0  0
  9 10  1  0  0  0
 10 11  2  0  0  0
 10 14  1  0  0  0
 14 15  1  0  0  0
 15 16  1  0  0  0
  9 12  1  0  0  0
 12 13  1  0  0  0
  4  5  2  0  0  0
  5  1  1  0  0  0
 13  6  1  0  0  0
 16 14  1  0  0  0
 20 18  1  0  0  0
 20 22  1  0  0  0
M  END
>  <CNNaffinity>
8.42935

>  <CNNscore>
0.837965

>  <minimizedAffinity>
-2.90662

>  <minimizedRMSD>
0.42083

>  <molecular weight>
371.327

$$$$



 33 37  0  0  0  0  0  0  0  0999 V2000
    0.8693   -9.1955   44.8608 C   0  0  0  0  0  0  0  0  0  0  0  0
    0.7369   -8.7173   43.7016 O   0  0  0  0  0  0  0  0  0  0  0  0
    2.1859   -9.4961   45.3588 N   0  0  0  0  0  0  0  0  0  0  0  0
    3.2436   -9.9467   44.4410 C   0  0  0  0  0  0  0  0  0  0  0  0
    4.3150   -8.8542   44.2778 C   0  0  0  0  0  0  0  0  0  0  0  0
    4.6521   -8.2230   45.5993 C   0  0  0  0  0  0  0  0  0  0  0  0
    5.7531   -7.4490   45.7859 N   0  0  0  0  0  0  0  0  0  0  0  0
    5.8155   -6.9814   47.0552 C   0  0  0  0  0  0  0  0  0  0  0  0
    4.5034   -7.4860   47.9889 S   0  0  0  0  0  0  0  0  0  0  0  0
    3.8279   -8.3442   46.7115 C   0  0  0  0  0  0  0  0  0  0  0  0
    2.5705   -9.1531   46.7370 C   0  0  0  0  0  0  0  0  0  0  0  0
   -3.5463  -10.7656   48.5591 C   0  0  0  0  0  0  0  0  0  0  0  0
   -4.3531   -9.9709   47.6970 C   0  0  0  0  0  0  0  0  0  0  0  0
   -3.7859   -9.3120   46.5910 C   0  0  0  0  0  0  0  0  0  0  0  0
   -2.4193   -9.4612   46.3746 C   0  0  0  0  0  0  0  0  0  0  0  0
   -1.6086   -8.9561   45.3819 C   0  0  0  0  0  0  0  0  0  0  0  0
   -0.3356   -9.4430   45.6748 C   0  0  0  0  0  0  0  0  0  0  0  0
   -0.3592  -10.2208   46.7844 N   0  0  0  0  0  0  0  0  0  0  0  0
   -1.6359  -10.2200   47.2011 C   0  0  0  0  0  0  0  0  0  0  0  0
   -2.1664  -10.8902   48.3015 C   0  0  0  0  0  0  0  0  0  0  0  0
   -5.4391  -11.3732   50.0737 C   0  0  0  0  0  0  0  0  0  0  0  0
   -4.0762  -11.4405   49.6685 O   0  0  0  0  0  0  0  0  0  0  0  0
    8.1019   -6.0160   46.8688 C   0  0  0  0  0  0  0  0  0  0  0  0
    6.9151   -6.0750   47.5411 N   0  0  0  0  0  0  0  0  0  0  0  0
    8.3762   -6.7750   45.9708 O   0  0  0  0  0  0  0  0  0  0  0  0
    6.6707   -5.5729   48.3958 H   0  0  0  0  0  0  0  0  0  0  0  0
    9.0292   -4.9109   47.3472 C   0  0  0  0  0  0  0  0  0  0  0  0
    8.3799   -3.5461   47.3614 C   0  0  0  0  0  0  0  0  0  0  0  0
    7.2220   -3.3208   48.1157 C   0  0  0  0  0  0  0  0  0  0  0  0
    6.6080   -2.0666   48.1308 C   0  0  0  0  0  0  0  0  0  0  0  0
    7.1403   -1.0191   47.3785 C   0  0  0  0  0  0  0  0  0  0  0  0
    8.2910   -1.2317   46.6175 C   0  0  0  0  0  0  0  0  0  0  0  0
    8.9045   -2.4856   46.6116 C   0  0  0  0  0  0  0  0  0  0  0  0
 25 23  2  0  0  0
 24 23  1  0  0  0
 23 27  1  0  0  0
 27 28  1  0  0  0
 28 29  2  0  0  0
 28 33  1  0  0  0
 29 30  1  0  0  0
 30 31  2  0  0  0
 31 32  1  0  0  0
 32 33  2  0  0  0
 21 22  1  0  0  0
 22 12  1  0  0  0
 12 13  2  0  0  0
 13 14  1  0  0  0
 14 15  2  0  0  0
 15 16  1  0  0  0
 16 17  2  0  0  0
 17  1  1  0  0  0
  1  2  2  0  0  0
  1  3  1  0  0  0
  3  4  1  0  0  0
  4  5  1  0  0  0
  5  6  1  0  0  0
  6  7  1  0  0  0
  7  8  2  0  0  0
  8  9  1  0  0  0
  9 10  1  0  0  0
 10 11  1  0  0  0
 17 18  1  0  0  0
 18 19  2  0  0  0
 19 20  1  0  0  0
 20 12  1  0  0  0
 19 15  1  0  0  0
 11  3  1  0  0  0
 10  6  2  0  0  0
 24  8  1  0  0  0
 24 26  1  0  0  0
M  END
>  <CNNaffinity>
8.38704

>  <CNNscore>
0.980871

>  <minimizedAffinity>
10.3232

>  <minimizedRMSD>
1.21528

>  <molecular weight>
425.355

$$$$



 40 44  0  0  0  0  0  0  0  0999 V2000
    2.9905   -9.2511   45.7272 C   0  0  0  0  0  0  0  0  0  0  0  0
    1.9861   -9.3144   46.6497 N   0  0  0  0  0  0  0  0  0  0  0  0
    0.7082   -9.0743   46.2788 C   0  0  0  0  0  0  0  0  0  0  0  0
   -0.3909   -9.0798   47.1385 C   0  0  0  0  0  0  0  0  0  0  0  0
   -1.5817   -8.7500   46.4783 C   0  0  0  0  0  0  0  0  0  0  0  0
   -1.2406   -8.4624   44.8367 S   0  0  0  0  0  0  0  0  0  0  0  0
    0.4069   -8.7600   44.9755 C   0  0  0  0  0  0  0  0  0  0  0  0
    1.4083   -8.7159   44.0164 C   0  0  0  0  0  0  0  0  0  0  0  0
    1.1199   -8.4311   42.8182 O   0  0  0  0  0  0  0  0  0  0  0  0
    2.7039   -8.9858   44.3946 N   0  0  0  0  0  0  0  0  0  0  0  0
    3.7660   -8.9904   43.3752 C   0  0  0  0  0  0  0  0  0  0  0  0
   -2.9168   -8.6289   47.1074 C   0  0  0  0  0  0  0  0  0  0  0  0
   -3.7170   -7.4965   46.8684 C   0  0  0  0  0  0  0  0  0  0  0  0
   -4.9633   -7.3648   47.4886 C   0  0  0  0  0  0  0  0  0  0  0  0
   -5.4345   -8.3717   48.3411 C   0  0  0  0  0  0  0  0  0  0  0  0
   -4.6507   -9.5069   48.5746 C   0  0  0  0  0  0  0  0  0  0  0  0
   -3.3984   -9.6339   47.9663 C   0  0  0  0  0  0  0  0  0  0  0  0
   -6.7395   -8.2385   49.0044 C   0  0  0  0  0  0  0  0  0  0  0  0
   -6.7714   -8.1593   50.2603 O   0  0  0  0  0  0  0  0  0  0  0  0
   -7.9664   -8.2258   48.2470 N   0  0  0  0  0  0  0  0  0  0  0  0
   -7.9471   -7.9253   46.8068 C   0  0  0  0  0  0  0  0  0  0  0  0
   -9.3262   -7.4442   46.3463 C   0  0  0  0  0  0  0  0  0  0  0  0
  -10.3403   -8.3384   46.7684 O   0  0  0  0  0  0  0  0  0  0  0  0
  -10.4293   -8.3185   48.1807 C   0  0  0  0  0  0  0  0  0  0  0  0
   -9.1551   -8.8776   48.8178 C   0  0  0  0  0  0  0  0  0  0  0  0
    4.3344   -9.4568   46.1807 N   0  0  0  0  0  0  0  0  0  0  0  0
    4.5998  -10.3479   46.5042 H   0  0  0  0  0  0  0  0  0  0  0  0
    5.3215   -8.3787   46.1756 C   0  0  0  0  0  0  0  0  0  0  0  0
    5.8812   -8.1763   47.5831 C   0  0  0  0  0  0  0  0  0  0  0  0
    8.0344   -7.0200   47.0219 C   0  0  0  0  0  0  0  0  0  0  0  0
    6.8081   -6.9500   47.6181 N   0  0  0  0  0  0  0  0  0  0  0  0
    8.4131   -8.0034   46.4329 O   0  0  0  0  0  0  0  0  0  0  0  0
    6.4007   -6.1506   48.1057 H   0  0  0  0  0  0  0  0  0  0  0  0
    8.8625   -5.7532   47.1609 C   0  0  0  0  0  0  0  0  0  0  0  0
    8.1091   -4.4985   46.7835 C   0  0  0  0  0  0  0  0  0  0  0  0
    6.9265   -4.1554   47.4501 C   0  0  0  0  0  0  0  0  0  0  0  0
    6.2168   -3.0031   47.1055 C   0  0  0  0  0  0  0  0  0  0  0  0
    6.6769   -2.1808   46.0765 C   0  0  0  0  0  0  0  0  0  0  0  0
    7.8514   -2.5143   45.3999 C   0  0  0  0  0  0  0  0  0  0  0  0
    8.5604   -3.6638   45.7532 C   0  0  0  0  0  0  0  0  0  0  0  0
 32 30  2  0  0  0
 31 30  1  0  0  0
 30 34  1  0  0  0
 34 35  1  0  0  0
 35 36  2  0  0  0
 35 40  1  0  0  0
 36 37  1  0  0  0
 37 38  2  0  0  0
 38 39  1  0  0  0
 39 40  2  0  0  0
 29 28  1  0  0  0
 28 26  1  0  0  0
 26  1  1  0  0  0
  1  2  2  0  0  0
  2  3  1  0  0  0
  3  4  1  0  0  0
  4  5  2  0  0  0
  5 12  1  0  0  0
 12 13  2  0  0  0
 13 14  1  0  0  0
 14 15  2  0  0  0
 15 18  1  0  0  0
 18 19  2  0  0  0
 18 20  1  0  0  0
 20 21  1  0  0  0
 21 22  1  0  0  0
 22 23  1  0  0  0
 23 24  1  0  0  0
 24 25  1  0  0  0
 15 16  1  0  0  0
 16 17  2  0  0  0
  5  6  1  0  0  0
  6  7  1  0  0  0
  7  8  1  0  0  0
  8  9  2  0  0  0
  8 10  1  0  0  0
 10 11  1  0  0  0
 10  1  1  0  0  0
  7  3  2  0  0  0
 17 12  1  0  0  0
 25 20  1  0  0  0
 31 29  1  0  0  0
 31 33  1  0  0  0
 26 27  1  0  0  0
M  END
>  <CNNaffinity>
8.32433

>  <CNNscore>
0.786523

>  <minimizedAffinity>
6.89373

>  <minimizedRMSD>
2.28985

>  <molecular weight>
504.412

$$$$



 28 30  0  0  0  0  0  0  0  0999 V2000
    1.7254   -9.0859   45.7493 C   0  0  0  0  0  0  0  0  0  0  0  0
    2.5968   -8.0674   45.9181 N   0  0  0  0  0  0  0  0  0  0  0  0
    3.8849   -8.4619   45.7243 C   0  0  0  0  0  0  0  0  0  0  0  0
    4.0526   -9.8102   45.4173 C   0  0  0  0  0  0  0  0  0  0  0  0
    2.5290  -10.5178   45.3703 S   0  0  0  0  0  0  0  0  0  0  0  0
   -2.8263   -8.3385   43.8585 C   0  0  0  0  0  0  0  0  0  0  0  0
   -3.6362   -8.9251   43.0913 O   0  0  0  0  0  0  0  0  0  0  0  0
   -1.8720   -9.1126   44.6070 N   0  0  0  0  0  0  0  0  0  0  0  0
   -2.3094  -10.3779   45.2144 C   0  0  0  0  0  0  0  0  0  0  0  0
   -1.1598  -11.0849   45.9449 C   0  0  0  0  0  0  0  0  0  0  0  0
   -0.3583  -10.0766   46.7732 C   0  0  0  0  0  0  0  0  0  0  0  0
    0.2359   -8.9332   45.9070 C   0  0  0  0  0  0  0  0  0  0  0  0
   -0.4381   -8.8026   44.5218 C   0  0  0  0  0  0  0  0  0  0  0  0
   -2.4937   -6.2051   45.0459 C   0  0  0  0  0  0  0  0  0  0  0  0
   -2.8964   -6.8689   43.9646 C   0  0  0  0  0  0  0  0  0  0  0  0
    5.0329   -7.5162   45.9017 C   0  0  0  0  0  0  0  0  0  0  0  0
    5.7511   -7.7878   47.2256 C   0  0  0  0  0  0  0  0  0  0  0  0
    7.9640   -6.6689   46.8555 C   0  0  0  0  0  0  0  0  0  0  0  0
    6.7676   -6.6796   47.5132 N   0  0  0  0  0  0  0  0  0  0  0  0
    8.2696   -7.5173   46.0528 O   0  0  0  0  0  0  0  0  0  0  0  0
    6.4506   -6.0055   48.2135 H   0  0  0  0  0  0  0  0  0  0  0  0
    8.8589   -5.4956   47.2192 C   0  0  0  0  0  0  0  0  0  0  0  0
    8.2220   -4.1502   46.9570 C   0  0  0  0  0  0  0  0  0  0  0  0
    7.0147   -3.8057   47.5771 C   0  0  0  0  0  0  0  0  0  0  0  0
    6.4119   -2.5691   47.3369 C   0  0  0  0  0  0  0  0  0  0  0  0
    7.0059   -1.6609   46.4599 C   0  0  0  0  0  0  0  0  0  0  0  0
    8.2064   -1.9941   45.8306 C   0  0  0  0  0  0  0  0  0  0  0  0
    8.8081   -3.2289   46.0797 C   0  0  0  0  0  0  0  0  0  0  0  0
 20 18  2  0  0  0
 19 18  1  0  0  0
 18 22  1  0  0  0
 22 23  1  0  0  0
 23 24  2  0  0  0
 23 28  1  0  0  0
 24 25  1  0  0  0
 25 26  2  0  0  0
 26 27  1  0  0  0
 27 28  2  0  0  0
 14 15  2  0  0  0
 15  6  1  0  0  0
  6  7  2  0  0  0
  6  8  1  0  0  0
  8  9  1  0  0  0
  9 10  1  0  0  0
 10 11  1  0  0  0
 11 12  1  0  0  0
 12  1  1  0  0  0
  1  2  2  0  0  0
  2  3  1  0  0  0
  3 16  1  0  0  0
 16 17  1  0  0  0
  3  4  2  0  0  0
  4  5  1  0  0  0
 12 13  1  0  0  0
 13  8  1  0  0  0
  5  1  1  0  0  0
 19 17  1  0  0  0
 19 21  1  0  0  0
M  END
>  <CNNaffinity>
8.2789

>  <CNNscore>
0.914361

>  <minimizedAffinity>
-1.41861

>  <minimizedRMSD>
0.57099

>  <molecular weight>
359.317

$$$$



 33 37  0  0  0  0  0  0  0  0999 V2000
    0.7839  -11.1019   45.0028 C   0  0  0  0  0  0  0  0  0  0  0  0
    0.1269   -9.8358   45.3209 N   0  0  0  0  0  0  0  0  0  0  0  0
    0.6679   -8.7470   45.9366 C   0  0  0  0  0  0  0  0  0  0  0  0
   -0.1634   -7.6717   45.9609 N   0  0  0  0  0  0  0  0  0  0  0  0
   -1.2537   -8.1182   45.3107 C   0  0  0  0  0  0  0  0  0  0  0  0
   -2.3990   -7.3963   44.9868 C   0  0  0  0  0  0  0  0  0  0  0  0
   -3.3960   -8.0417   44.2234 C   0  0  0  0  0  0  0  0  0  0  0  0
   -3.2219   -9.3916   43.8308 C   0  0  0  0  0  0  0  0  0  0  0  0
   -2.0480  -10.0894   44.1681 C   0  0  0  0  0  0  0  0  0  0  0  0
   -1.0828   -9.4141   44.9168 C   0  0  0  0  0  0  0  0  0  0  0  0
   -4.6050   -7.3068   43.8104 C   0  0  0  0  0  0  0  0  0  0  0  0
   -5.7352   -7.8261   44.0186 O   0  0  0  0  0  0  0  0  0  0  0  0
   -4.5145   -6.0242   43.1674 N   0  0  0  0  0  0  0  0  0  0  0  0
   -5.6742   -5.1852   42.9160 C   0  0  0  0  0  0  0  0  0  0  0  0
   -5.1461   -3.9779   42.1521 C   0  0  0  0  0  0  0  0  0  0  0  0
   -3.7940   -4.4097   41.5913 C   0  0  0  0  0  0  0  0  0  0  0  0
   -3.3231   -5.5503   42.4828 C   0  0  0  0  0  0  0  0  0  0  0  0
    2.0631   -8.6972   46.4865 C   0  0  0  0  0  0  0  0  0  0  0  0
    6.8968   -9.0380   45.2344 C   0  0  0  0  0  0  0  0  0  0  0  0
    5.7562   -9.0945   45.9827 N   0  0  0  0  0  0  0  0  0  0  0  0
    6.8941   -9.1905   44.0368 O   0  0  0  0  0  0  0  0  0  0  0  0
    3.0022   -8.3449   45.4003 N   0  0  0  0  0  0  0  0  0  0  0  0
    3.6196   -9.5215   44.7499 C   0  0  0  0  0  0  0  0  0  0  0  0
    4.7099  -10.1440   45.6213 C   0  0  0  0  0  0  0  0  0  0  0  0
    5.1480   -7.9193   46.6439 C   0  0  0  0  0  0  0  0  0  0  0  0
    4.0010   -7.3265   45.8045 C   0  0  0  0  0  0  0  0  0  0  0  0
    8.1532   -8.7585   46.0427 C   0  0  0  0  0  0  0  0  0  0  0  0
    8.1297   -7.4212   46.7466 C   0  0  0  0  0  0  0  0  0  0  0  0
    6.9111   -6.7966   47.0392 C   0  0  0  0  0  0  0  0  0  0  0  0
    6.8760   -5.5573   47.6819 C   0  0  0  0  0  0  0  0  0  0  0  0
    8.0656   -4.9178   48.0318 C   0  0  0  0  0  0  0  0  0  0  0  0
    9.2874   -5.5267   47.7407 C   0  0  0  0  0  0  0  0  0  0  0  0
    9.3165   -6.7688   47.1041 C   0  0  0  0  0  0  0  0  0  0  0  0
 21 19  2  0  0  0
 20 19  1  0  0  0
 19 27  1  0  0  0
 27 28  1  0  0  0
 28 29  2  0  0  0
 28 33  1  0  0  0
 29 30  1  0  0  0
 30 31  2  0  0  0
 31 32  1  0  0  0
 32 33  2  0  0  0
  1  2  1  0  0  0
  2  3  1  0  0  0
  3 18  1  0  0  0
 18 22  1  0  0  0
 22 23  1  0  0  0
 23 24  1  0  0  0
 25 26  1  0  0  0
  3  4  2  0  0  0
  4  5  1  0  0  0
  5  6  2  0  0  0
  6  7  1  0  0  0
  7 11  1  0  0  0
 11 12  2  0  0  0
 11 13  1  0  0  0
 13 14  1  0  0  0
 14 15  1  0  0  0
 15 16  1  0  0  0
 16 17  1  0  0  0
  7  8  2  0  0  0
  8  9  1  0  0  0
  9 10  2  0  0  0
 10  2  1  0  0  0
 26 22  1  0  0  0
 10  5  1  0  0  0
 17 13  1  0  0  0
 20 24  1  0  0  0
 20 25  1  0  0  0
M  END
>  <CNNaffinity>
8.27879

>  <CNNscore>
0.785481

>  <minimizedAffinity>
6.72096

>  <minimizedRMSD>
3.4087

>  <molecular weight>
414.31

$$$$



 36 40  0  0  0  0  0  0  0  0999 V2000
    1.6832   -8.8068   46.0588 C   0  0  0  0  0  0  0  0  0  0  0  0
    1.3434   -8.7862   47.3804 N   0  0  0  0  0  0  0  0  0  0  0  0
    0.0511   -8.6038   47.7844 C   0  0  0  0  0  0  0  0  0  0  0  0
   -0.9405   -8.4264   46.8655 N   0  0  0  0  0  0  0  0  0  0  0  0
   -0.6415   -8.4425   45.5406 C   0  0  0  0  0  0  0  0  0  0  0  0
   -1.5543   -8.2198   44.4939 C   0  0  0  0  0  0  0  0  0  0  0  0
   -0.9252   -8.2142   43.2429 C   0  0  0  0  0  0  0  0  0  0  0  0
    0.7298   -8.4904   43.4488 S   0  0  0  0  0  0  0  0  0  0  0  0
    0.6633   -8.6240   45.1216 C   0  0  0  0  0  0  0  0  0  0  0  0
   -3.0082   -7.9903   44.6708 C   0  0  0  0  0  0  0  0  0  0  0  0
   -3.7326   -8.6866   45.6547 C   0  0  0  0  0  0  0  0  0  0  0  0
   -5.1027   -8.4620   45.8173 C   0  0  0  0  0  0  0  0  0  0  0  0
   -5.7714   -7.5489   44.9925 C   0  0  0  0  0  0  0  0  0  0  0  0
   -5.0573   -6.8555   44.0072 C   0  0  0  0  0  0  0  0  0  0  0  0
   -3.6872   -7.0787   43.8425 C   0  0  0  0  0  0  0  0  0  0  0  0
   -7.4922   -7.2517   45.2175 S   0  0  0  0  0  0  0  0  0  0  0  0
   -7.7156   -5.9985   46.4591 C   0  0  0  0  0  0  0  0  0  0  0  0
   -8.1740   -8.5189   45.6523 O   0  0  0  0  0  0  0  0  0  0  0  0
   -8.1063   -6.7926   43.9240 O   0  0  0  0  0  0  0  0  0  0  0  0
    3.3867   -9.7791   44.4873 C   0  0  0  0  0  0  0  0  0  0  0  0
    3.0585   -8.9797   45.6745 N   0  0  0  0  0  0  0  0  0  0  0  0
    8.1128   -7.9565   46.5647 C   0  0  0  0  0  0  0  0  0  0  0  0
    6.9035   -7.5946   47.0849 N   0  0  0  0  0  0  0  0  0  0  0  0
    8.2870   -9.0111   46.0033 O   0  0  0  0  0  0  0  0  0  0  0  0
    4.1079   -8.3124   46.4680 C   0  0  0  0  0  0  0  0  0  0  0  0
    4.8935   -7.2967   45.6125 C   0  0  0  0  0  0  0  0  0  0  0  0
    5.9783   -6.6137   46.4527 C   0  0  0  0  0  0  0  0  0  0  0  0
    6.1416   -8.6271   47.9325 C   0  0  0  0  0  0  0  0  0  0  0  0
    5.0554   -9.3415   47.1198 C   0  0  0  0  0  0  0  0  0  0  0  0
    9.2025   -6.9133   46.7495 C   0  0  0  0  0  0  0  0  0  0  0  0
    8.7635   -5.5145   46.3823 C   0  0  0  0  0  0  0  0  0  0  0  0
    7.6679   -4.9248   47.0247 C   0  0  0  0  0  0  0  0  0  0  0  0
    7.2473   -3.6362   46.6889 C   0  0  0  0  0  0  0  0  0  0  0  0
    7.9134   -2.9212   45.6930 C   0  0  0  0  0  0  0  0  0  0  0  0
    9.0035   -3.4995   45.0407 C   0  0  0  0  0  0  0  0  0  0  0  0
    9.4238   -4.7854   45.3852 C   0  0  0  0  0  0  0  0  0  0  0  0
 24 22  2  0  0  0
 23 22  1  0  0  0
 22 30  1  0  0  0
 30 31  1  0  0  0
 31 32  2  0  0  0
 31 36  1  0  0  0
 32 33  1  0  0  0
 33 34  2  0  0  0
 34 35  1  0  0  0
 35 36  2  0  0  0
 20 21  1  0  0  0
 21  1  1  0  0  0
  1  2  2  0  0  0
  2  3  1  0  0  0
  3  4  2  0  0  0
  4  5  1  0  0  0
  5  6  1  0  0  0
  6 10  1  0  0  0
 10 11  2  0  0  0
 11 12  1  0  0  0
 12 13  2  0  0  0
 13 16  1  0  0  0
 16 17  1  0  0  0
 16 18  2  0  0  0
 16 19  2  0  0  0
 13 14  1  0  0  0
 14 15  2  0  0  0
  6  7  2  0  0  0
  7  8  1  0  0  0
  8  9  1  0  0  0
 21 25  1  0  0  0
 25 26  1  0  0  0
 26 27  1  0  0  0
 28 29  1  0  0  0
  9  1  1  0  0  0
 29 25  1  0  0  0
  9  5  2  0  0  0
 15 10  1  0  0  0
 23 27  1  0  0  0
 23 28  1  0  0  0
M  END
>  <CNNaffinity>
8.22907

>  <CNNscore>
0.133211

>  <minimizedAffinity>
14.4769

>  <minimizedRMSD>
1.57401

>  <molecular weight>
492.444

$$$$



 29 31  0  0  0  0  0  0  0  0999 V2000
    1.6749   -9.5276   45.6774 C   0  0  0  0  0  0  0  0  0  0  0  0
    2.4130   -8.4558   46.0425 N   0  0  0  0  0  0  0  0  0  0  0  0
    3.7340   -8.6327   45.7688 C   0  0  0  0  0  0  0  0  0  0  0  0
    4.0613   -9.8596   45.1961 C   0  0  0  0  0  0  0  0  0  0  0  0
    2.6382  -10.7355   45.0123 S   0  0  0  0  0  0  0  0  0  0  0  0
   -2.8346   -8.1836   44.0877 C   0  0  0  0  0  0  0  0  0  0  0  0
   -2.4108   -7.2745   43.3207 O   0  0  0  0  0  0  0  0  0  0  0  0
   -1.9849   -8.6679   45.1481 N   0  0  0  0  0  0  0  0  0  0  0  0
   -2.5592   -9.2248   46.3841 C   0  0  0  0  0  0  0  0  0  0  0  0
   -1.6273   -8.9799   47.5759 C   0  0  0  0  0  0  0  0  0  0  0  0
   -0.2075   -9.5311   47.3430 C   0  0  0  0  0  0  0  0  0  0  0  0
    0.1850   -9.6164   45.8498 C   0  0  0  0  0  0  0  0  0  0  0  0
   -0.5260   -8.5431   45.0103 C   0  0  0  0  0  0  0  0  0  0  0  0
   -4.3210   -9.3593   42.4560 C   0  0  0  0  0  0  0  0  0  0  0  0
   -4.2193   -8.7471   43.8572 C   0  0  0  0  0  0  0  0  0  0  0  0
   -5.2777   -7.6565   44.0531 C   0  0  0  0  0  0  0  0  0  0  0  0
    4.7571   -7.5987   46.1248 C   0  0  0  0  0  0  0  0  0  0  0  0
    5.4395   -7.9522   47.4485 C   0  0  0  0  0  0  0  0  0  0  0  0
    7.7861   -7.1513   47.0507 C   0  0  0  0  0  0  0  0  0  0  0  0
    6.6045   -6.9897   47.7155 N   0  0  0  0  0  0  0  0  0  0  0  0
    7.9697   -8.0493   46.2650 O   0  0  0  0  0  0  0  0  0  0  0  0
    6.3863   -6.2719   48.4106 H   0  0  0  0  0  0  0  0  0  0  0  0
    8.8315   -6.0996   47.3836 C   0  0  0  0  0  0  0  0  0  0  0  0
    8.3743   -4.6871   47.0999 C   0  0  0  0  0  0  0  0  0  0  0  0
    7.2332   -4.1729   47.7277 C   0  0  0  0  0  0  0  0  0  0  0  0
    6.7958   -2.8723   47.4680 C   0  0  0  0  0  0  0  0  0  0  0  0
    7.4910   -2.0689   46.5637 C   0  0  0  0  0  0  0  0  0  0  0  0
    8.6268   -2.5712   45.9265 C   0  0  0  0  0  0  0  0  0  0  0  0
    9.0635   -3.8697   46.1950 C   0  0  0  0  0  0  0  0  0  0  0  0
 21 19  2  0  0  0
 20 19  1  0  0  0
 19 23  1  0  0  0
 23 24  1  0  0  0
 24 25  2  0  0  0
 24 29  1  0  0  0
 25 26  1  0  0  0
 26 27  2  0  0  0
 27 28  1  0  0  0
 28 29  2  0  0  0
 14 15  1  0  0  0
 15 16  1  0  0  0
 15  6  1  0  0  0
  6  7  2  0  0  0
  6  8  1  0  0  0
  8  9  1  0  0  0
  9 10  1  0  0  0
 10 11  1  0  0  0
 11 12  1  0  0  0
 12  1  1  0  0  0
  1  2  2  0  0  0
  2  3  1  0  0  0
  3 17  1  0  0  0
 17 18  1  0  0  0
  3  4  2  0  0  0
  4  5  1  0  0  0
 12 13  1  0  0  0
 13  8  1  0  0  0
  5  1  1  0  0  0
 20 18  1  0  0  0
 20 22  1  0  0  0
M  END
>  <CNNaffinity>
8.22021

>  <CNNscore>
0.687658

>  <minimizedAffinity>
1.48909

>  <minimizedRMSD>
0.89067

>  <molecular weight>
371.327

$$$$



 26 28  0  0  0  0  0  0  0  0999 V2000
    8.6095   -7.4000   46.9590 C   0  0  0  0  0  0  0  0  0  0  0  0
    7.3135   -7.4977   47.3772 N   0  0  0  0  0  0  0  0  0  0  0  0
    9.1096   -8.2012   46.2069 O   0  0  0  0  0  0  0  0  0  0  0  0
    6.2534   -6.4941   47.1525 C   0  0  0  0  0  0  0  0  0  0  0  0
    5.3566   -6.8638   45.9666 C   0  0  0  0  0  0  0  0  0  0  0  0
    4.7418   -8.2680   46.1531 C   0  0  0  0  0  0  0  0  0  0  0  0
    5.8527   -9.3163   46.3896 C   0  0  0  0  0  0  0  0  0  0  0  0
    6.7395   -8.9111   47.5714 C   0  0  0  0  0  0  0  0  0  0  0  0
    9.3499   -6.1956   47.5165 C   0  0  0  0  0  0  0  0  0  0  0  0
    8.6713   -4.8797   47.2126 C   0  0  0  0  0  0  0  0  0  0  0  0
    7.3550   -4.6488   47.6306 C   0  0  0  0  0  0  0  0  0  0  0  0
    6.7141   -3.4404   47.3490 C   0  0  0  0  0  0  0  0  0  0  0  0
    7.3808   -2.4465   46.6319 C   0  0  0  0  0  0  0  0  0  0  0  0
    8.6913   -2.6659   46.2043 C   0  0  0  0  0  0  0  0  0  0  0  0
    9.3295   -3.8731   46.4944 C   0  0  0  0  0  0  0  0  0  0  0  0
    3.8807   -8.6352   44.9282 C   0  0  0  0  0  0  0  0  0  0  0  0
    2.5994   -9.2262   45.3390 N   0  0  0  0  0  0  0  0  0  0  0  0
    2.6768   -9.5498   46.3032 H   0  0  0  0  0  0  0  0  0  0  0  0
    1.3043   -8.0673   45.2323 S   0  0  0  0  0  0  0  0  0  0  0  0
    1.4011   -7.2945   43.9442 O   0  0  0  0  0  0  0  0  0  0  0  0
    1.3585   -7.1055   46.3871 O   0  0  0  0  0  0  0  0  0  0  0  0
   -0.2240   -8.9237   45.2765 C   0  0  0  0  0  0  0  0  0  0  0  0
   -1.1798   -8.9311   44.2724 C   0  0  0  0  0  0  0  0  0  0  0  0
   -2.2838   -9.7350   44.5778 C   0  0  0  0  0  0  0  0  0  0  0  0
   -2.1917  -10.3609   45.8153 C   0  0  0  0  0  0  0  0  0  0  0  0
   -0.7347   -9.9163   46.5306 S   0  0  0  0  0  0  0  0  0  0  0  0
  3  1  2  0  0  0
  2  1  1  0  0  0
  1  9  1  0  0  0
  9 10  1  0  0  0
 10 11  2  0  0  0
 10 15  1  0  0  0
 11 12  1  0  0  0
 12 13  2  0  0  0
 13 14  1  0  0  0
 14 15  2  0  0  0
  4  5  1  0  0  0
  5  6  1  0  0  0
  6 16  1  0  0  0
 16 17  1  0  0  0
 17 19  1  0  0  0
 19 20  2  0  0  0
 19 21  2  0  0  0
 19 22  1  0  0  0
 22 23  2  0  0  0
 23 24  1  0  0  0
 24 25  2  0  0  0
 25 26  1  0  0  0
  6  7  1  0  0  0
  7  8  1  0  0  0
 26 22  1  0  0  0
  2  4  1  0  0  0
  2  8  1  0  0  0
 17 18  1  0  0  0
M  END
>  <CNNaffinity>
8.19002

>  <CNNscore>
0.711022

>  <minimizedAffinity>
4.52124

>  <minimizedRMSD>
1.64562

>  <molecular weight>
357.342

$$$$



 29 32  0  0  0  0  0  0  0  0999 V2000
    8.5717   -7.5968   46.4703 C   0  0  0  0  0  0  0  0  0  0  0  0
    7.4195   -7.7966   47.1751 N   0  0  0  0  0  0  0  0  0  0  0  0
    8.9454   -8.3576   45.6107 O   0  0  0  0  0  0  0  0  0  0  0  0
    4.7652   -8.7271   46.7819 N   0  0  0  0  0  0  0  0  0  0  0  0
    4.9239   -7.4880   47.5513 C   0  0  0  0  0  0  0  0  0  0  0  0
    6.2836   -6.8481   47.2390 C   0  0  0  0  0  0  0  0  0  0  0  0
    7.0633   -9.2507   47.5288 C   0  0  0  0  0  0  0  0  0  0  0  0
    5.8381   -9.7296   46.7457 C   0  0  0  0  0  0  0  0  0  0  0  0
    4.6164   -9.9139   43.8847 C   0  0  0  0  0  0  0  0  0  0  0  0
    3.4811   -9.4828   44.7534 C   0  0  0  0  0  0  0  0  0  0  0  0
    2.1817   -9.5999   44.4148 N   0  0  0  0  0  0  0  0  0  0  0  0
    1.4516   -9.1727   45.4395 N   0  0  0  0  0  0  0  0  0  0  0  0
    2.2687   -8.7514   46.4336 C   0  0  0  0  0  0  0  0  0  0  0  0
    1.8246   -8.1818   47.7469 C   0  0  0  0  0  0  0  0  0  0  0  0
    3.5704   -8.9540   46.0253 C   0  0  0  0  0  0  0  0  0  0  0  0
   -0.0147   -9.0906   45.4215 C   0  0  0  0  0  0  0  0  0  0  0  0
   -0.6688  -10.4344   45.0394 C   0  0  0  0  0  0  0  0  0  0  0  0
   -2.1245  -10.1604   44.6675 C   0  0  0  0  0  0  0  0  0  0  0  0
   -2.1304   -8.5265   43.9882 S   0  0  0  0  0  0  0  0  0  0  0  0
   -2.3247   -8.5468   42.4991 O   0  0  0  0  0  0  0  0  0  0  0  0
   -3.1630   -7.6595   44.6505 O   0  0  0  0  0  0  0  0  0  0  0  0
   -0.4897   -8.0316   44.4239 C   0  0  0  0  0  0  0  0  0  0  0  0
    9.3241   -6.3353   46.8605 C   0  0  0  0  0  0  0  0  0  0  0  0
    8.4572   -5.0973   46.8698 C   0  0  0  0  0  0  0  0  0  0  0  0
    7.3124   -5.0407   47.6742 C   0  0  0  0  0  0  0  0  0  0  0  0
    6.4987   -3.9058   47.6856 C   0  0  0  0  0  0  0  0  0  0  0  0
    6.8146   -2.8115   46.8799 C   0  0  0  0  0  0  0  0  0  0  0  0
    7.9498   -2.8570   46.0689 C   0  0  0  0  0  0  0  0  0  0  0  0
    8.7634   -3.9914   46.0665 C   0  0  0  0  0  0  0  0  0  0  0  0
  3  1  2  0  0  0
  2  1  1  0  0  0
  1 23  1  0  0  0
 23 24  1  0  0  0
 24 25  2  0  0  0
 24 29  1  0  0  0
 25 26  1  0  0  0
 26 27  2  0  0  0
 27 28  1  0  0  0
 28 29  2  0  0  0
  9 10  1  0  0  0
 10 11  2  0  0  0
 11 12  1  0  0  0
 12 16  1  0  0  0
 16 17  1  0  0  0
 17 18  1  0  0  0
 18 19  1  0  0  0
 19 20  2  0  0  0
 19 21  2  0  0  0
 19 22  1  0  0  0
 12 13  1  0  0  0
 13 14  1  0  0  0
 13 15  2  0  0  0
 15  4  1  0  0  0
  4  5  1  0  0  0
  5  6  1  0  0  0
  7  8  1  0  0  0
 15 10  1  0  0  0
  8  4  1  0  0  0
 22 16  1  0  0  0
  2  6  1  0  0  0
  2  7  1  0  0  0
M  END
>  <CNNaffinity>
8.15081

>  <CNNscore>
0.444549

>  <minimizedAffinity>
5.00046

>  <minimizedRMSD>
2.1447

>  <molecular weight>
388.315

$$$$



 31 34  0  0  0  0  0  0  0  0999 V2000
    3.8059   -8.2530   45.7781 C   0  0  0  0  0  0  0  0  0  0  0  0
    3.8726   -9.6441   45.7234 C   0  0  0  0  0  0  0  0  0  0  0  0
    2.3015  -10.2277   45.5992 S   0  0  0  0  0  0  0  0  0  0  0  0
    1.6077   -8.6918   45.5901 C   0  0  0  0  0  0  0  0  0  0  0  0
    2.5509   -7.7314   45.7071 N   0  0  0  0  0  0  0  0  0  0  0  0
    0.1325   -8.3956   45.5666 C   0  0  0  0  0  0  0  0  0  0  0  0
   -0.4979   -8.5957   46.9723 C   0  0  0  0  0  0  0  0  0  0  0  0
   -1.8349   -9.3524   46.9442 C   0  0  0  0  0  0  0  0  0  0  0  0
   -2.6574   -8.9187   45.8051 N   0  0  0  0  0  0  0  0  0  0  0  0
   -4.0067   -8.4557   46.0013 C   0  0  0  0  0  0  0  0  0  0  0  0
   -4.4106   -7.4432   45.3669 O   0  0  0  0  0  0  0  0  0  0  0  0
   -2.0756   -8.8673   44.4549 C   0  0  0  0  0  0  0  0  0  0  0  0
   -0.5816   -9.2111   44.4720 C   0  0  0  0  0  0  0  0  0  0  0  0
   -4.9398   -9.1455   46.9177 C   0  0  0  0  0  0  0  0  0  0  0  0
   -4.8081  -10.4902   47.3066 C   0  0  0  0  0  0  0  0  0  0  0  0
   -5.8135  -10.9251   48.1574 C   0  0  0  0  0  0  0  0  0  0  0  0
   -6.8712   -9.6460   48.4135 S   0  0  0  0  0  0  0  0  0  0  0  0
   -6.0679   -8.5279   47.4511 C   0  0  0  0  0  0  0  0  0  0  0  0
    5.0166   -7.3756   45.8981 C   0  0  0  0  0  0  0  0  0  0  0  0
    5.7298   -7.5973   47.2367 C   0  0  0  0  0  0  0  0  0  0  0  0
    8.0211   -6.7386   46.6666 C   0  0  0  0  0  0  0  0  0  0  0  0
    6.8777   -6.5906   47.3980 N   0  0  0  0  0  0  0  0  0  0  0  0
    8.1740   -7.6406   45.8789 O   0  0  0  0  0  0  0  0  0  0  0  0
    6.6762   -5.8543   48.0780 H   0  0  0  0  0  0  0  0  0  0  0  0
    9.0659   -5.6666   46.9292 C   0  0  0  0  0  0  0  0  0  0  0  0
    8.5392   -4.2601   46.7602 C   0  0  0  0  0  0  0  0  0  0  0  0
    7.4453   -3.8184   47.5146 C   0  0  0  0  0  0  0  0  0  0  0  0
    6.9440   -2.5239   47.3620 C   0  0  0  0  0  0  0  0  0  0  0  0
    7.5261   -1.6536   46.4399 C   0  0  0  0  0  0  0  0  0  0  0  0
    8.6134   -2.0830   45.6773 C   0  0  0  0  0  0  0  0  0  0  0  0
    9.1147   -3.3759   45.8389 C   0  0  0  0  0  0  0  0  0  0  0  0
 23 21  2  0  0  0
 22 21  1  0  0  0
 21 25  1  0  0  0
 25 26  1  0  0  0
 26 27  2  0  0  0
 26 31  1  0  0  0
 27 28  1  0  0  0
 28 29  2  0  0  0
 29 30  1  0  0  0
 30 31  2  0  0  0
 20 19  1  0  0  0
 19  1  1  0  0  0
  1  2  2  0  0  0
  2  3  1  0  0  0
  3  4  1  0  0  0
  4  6  1  0  0  0
  6  7  1  0  0  0
  7  8  1  0  0  0
  8  9  1  0  0  0
  9 10  1  0  0  0
 10 11  2  0  0  0
 10 14  1  0  0  0
 14 15  1  0  0  0
 15 16  2  0  0  0
 16 17  1  0  0  0
 17 18  1  0  0  0
  9 12  1  0  0  0
 12 13  1  0  0  0
  4  5  2  0  0  0
  5  1  1  0  0  0
 13  6  1  0  0  0
 18 14  2  0  0  0
 22 20  1  0  0  0
 22 24  1  0  0  0
M  END
>  <CNNaffinity>
8.14782

>  <CNNscore>
0.626807

>  <minimizedAffinity>
4.43799

>  <minimizedRMSD>
0.98709

>  <molecular weight>
415.403

$$$$



 27 29  0  0  0  0  0  0  0  0999 V2000
    8.5850   -7.4761   46.5339 C   0  0  0  0  0  0  0  0  0  0  0  0
    7.2600   -7.3935   46.8527 N   0  0  0  0  0  0  0  0  0  0  0  0
    9.0173   -8.3063   45.7713 O   0  0  0  0  0  0  0  0  0  0  0  0
    4.7186   -7.8788   45.5544 C   0  0  0  0  0  0  0  0  0  0  0  0
    4.8751   -6.6109   46.4088 C   0  0  0  0  0  0  0  0  0  0  0  0
    6.3605   -6.2510   46.5550 C   0  0  0  0  0  0  0  0  0  0  0  0
    6.5265   -8.6986   47.2156 C   0  0  0  0  0  0  0  0  0  0  0  0
    5.4471   -9.0965   46.1944 C   0  0  0  0  0  0  0  0  0  0  0  0
    3.2853   -8.1414   45.3382 N   0  0  0  0  0  0  0  0  0  0  0  0
    2.7486   -7.6263   46.0361 H   0  0  0  0  0  0  0  0  0  0  0  0
    2.9564   -9.5700   45.4488 C   0  0  0  0  0  0  0  0  0  0  0  0
    1.5781   -9.7507   46.1358 C   0  0  0  0  0  0  0  0  0  0  0  0
    0.4014   -9.2913   45.3391 N   0  0  0  0  0  0  0  0  0  0  0  0
   -0.7103  -10.2654   45.3622 C   0  0  0  0  0  0  0  0  0  0  0  0
   -1.9672   -9.6899   44.6817 C   0  0  0  0  0  0  0  0  0  0  0  0
   -1.6189   -8.6331   43.8105 O   0  0  0  0  0  0  0  0  0  0  0  0
   -1.1374   -7.5264   44.5568 C   0  0  0  0  0  0  0  0  0  0  0  0
   -0.0975   -7.9304   45.6237 C   0  0  0  0  0  0  0  0  0  0  0  0
    1.6805  -12.2868   45.6198 C   0  0  0  0  0  0  0  0  0  0  0  0
    1.3591  -11.1950   46.6401 C   0  0  0  0  0  0  0  0  0  0  0  0
    9.4512   -6.4296   47.2153 C   0  0  0  0  0  0  0  0  0  0  0  0
    8.8965   -5.0278   47.1076 C   0  0  0  0  0  0  0  0  0  0  0  0
    7.5406   -4.7820   47.3559 C   0  0  0  0  0  0  0  0  0  0  0  0
    7.0141   -3.4928   47.2518 C   0  0  0  0  0  0  0  0  0  0  0  0
    7.8388   -2.4289   46.8849 C   0  0  0  0  0  0  0  0  0  0  0  0
    9.1911   -2.6610   46.6289 C   0  0  0  0  0  0  0  0  0  0  0  0
    9.7135   -3.9507   46.7411 C   0  0  0  0  0  0  0  0  0  0  0  0
  3  1  2  0  0  0
  2  1  1  0  0  0
  1 21  1  0  0  0
 21 22  1  0  0  0
 22 23  2  0  0  0
 22 27  1  0  0  0
 23 24  1  0  0  0
 24 25  2  0  0  0
 25 26  1  0  0  0
 26 27  2  0  0  0
 19 20  1  0  0  0
 20 12  1  0  0  0
 12 11  1  0  0  0
 11  9  1  0  0  0
  9  4  1  0  0  0
  4  5  1  0  0  0
  5  6  1  0  0  0
  7  8  1  0  0  0
 12 13  1  0  0  0
 13 14  1  0  0  0
 14 15  1  0  0  0
 15 16  1  0  0  0
 16 17  1  0  0  0
 17 18  1  0  0  0
  8  4  1  0  0  0
 18 13  1  0  0  0
  2  6  1  0  0  0
  2  7  1  0  0  0
  9 10  1  0  0  0
M  END
>  <CNNaffinity>
8.13186

>  <CNNscore>
0.800251

>  <minimizedAffinity>
3.32973

>  <minimizedRMSD>
2.32101

>  <molecular weight>
327.252

$$$$



 30 33  0  0  0  0  0  0  0  0999 V2000
    3.3738   -8.5598   45.8223 C   0  0  0  0  0  0  0  0  0  0  0  0
    3.5139   -9.9371   45.9754 C   0  0  0  0  0  0  0  0  0  0  0  0
    2.0567  -10.6507   45.5409 S   0  0  0  0  0  0  0  0  0  0  0  0
    1.3089   -9.1870   45.1889 C   0  0  0  0  0  0  0  0  0  0  0  0
    2.1579   -8.1511   45.3680 N   0  0  0  0  0  0  0  0  0  0  0  0
   -0.0658   -9.0564   44.5921 C   0  0  0  0  0  0  0  0  0  0  0  0
   -1.1646   -8.9032   45.6810 C   0  0  0  0  0  0  0  0  0  0  0  0
   -2.1759   -7.7831   45.3838 C   0  0  0  0  0  0  0  0  0  0  0  0
   -2.5318   -7.7618   43.9575 N   0  0  0  0  0  0  0  0  0  0  0  0
   -3.9059   -7.7118   43.5258 C   0  0  0  0  0  0  0  0  0  0  0  0
   -4.2250   -8.2302   42.4189 O   0  0  0  0  0  0  0  0  0  0  0  0
   -1.4704   -7.7785   42.9400 C   0  0  0  0  0  0  0  0  0  0  0  0
   -0.0797   -7.9074   43.5716 C   0  0  0  0  0  0  0  0  0  0  0  0
   -4.9695   -7.0679   44.3913 C   0  0  0  0  0  0  0  0  0  0  0  0
   -6.1472   -7.9966   44.6763 C   0  0  0  0  0  0  0  0  0  0  0  0
   -7.0796   -7.0393   43.9465 C   0  0  0  0  0  0  0  0  0  0  0  0
   -5.9108   -6.1051   43.6639 C   0  0  0  0  0  0  0  0  0  0  0  0
    4.4831   -7.5869   46.0915 C   0  0  0  0  0  0  0  0  0  0  0  0
    5.2028   -7.9142   47.4053 C   0  0  0  0  0  0  0  0  0  0  0  0
    7.5397   -7.0200   47.2218 C   0  0  0  0  0  0  0  0  0  0  0  0
    6.2731   -6.8531   47.7035 N   0  0  0  0  0  0  0  0  0  0  0  0
    7.8526   -7.9623   46.5350 O   0  0  0  0  0  0  0  0  0  0  0  0
    5.9246   -6.0716   48.2626 H   0  0  0  0  0  0  0  0  0  0  0  0
    8.5034   -5.9145   47.6205 C   0  0  0  0  0  0  0  0  0  0  0  0
    8.1254   -4.5597   47.0674 C   0  0  0  0  0  0  0  0  0  0  0  0
    6.9408   -3.9341   47.4748 C   0  0  0  0  0  0  0  0  0  0  0  0
    6.5763   -2.6861   46.9652 C   0  0  0  0  0  0  0  0  0  0  0  0
    7.3903   -2.0493   46.0279 C   0  0  0  0  0  0  0  0  0  0  0  0
    8.5711   -2.6645   45.6088 C   0  0  0  0  0  0  0  0  0  0  0  0
    8.9340   -3.9091   46.1267 C   0  0  0  0  0  0  0  0  0  0  0  0
 22 20  2  0  0  0
 21 20  1  0  0  0
 20 24  1  0  0  0
 24 25  1  0  0  0
 25 26  2  0  0  0
 25 30  1  0  0  0
 26 27  1  0  0  0
 27 28  2  0  0  0
 28 29  1  0  0  0
 29 30  2  0  0  0
 19 18  1  0  0  0
 18  1  1  0  0  0
  1  2  2  0  0  0
  2  3  1  0  0  0
  3  4  1  0  0  0
  4  6  1  0  0  0
  6  7  1  0  0  0
  7  8  1  0  0  0
  8  9  1  0  0  0
  9 10  1  0  0  0
 10 11  2  0  0  0
 10 14  1  0  0  0
 14 15  1  0  0  0
 15 16  1  0  0  0
 16 17  1  0  0  0
  9 12  1  0  0  0
 12 13  1  0  0  0
  4  5  2  0  0  0
  5  1  1  0  0  0
 13  6  1  0  0  0
 17 14  1  0  0  0
 21 19  1  0  0  0
 21 23  1  0  0  0
M  END
>  <CNNaffinity>
8.11868

>  <CNNscore>
0.473244

>  <minimizedAffinity>
-2.74312

>  <minimizedRMSD>
0.95993

>  <molecular weight>
383.338

$$$$



 22 24  0  0  0  0  0  0  0  0999 V2000
    8.3505   -7.2137   46.6022 C   0  0  0  0  0  0  0  0  0  0  0  0
    7.0942   -7.4393   47.0868 N   0  0  0  0  0  0  0  0  0  0  0  0
    8.8876   -7.9616   45.8213 O   0  0  0  0  0  0  0  0  0  0  0  0
    6.6703   -8.8938   47.3226 C   0  0  0  0  0  0  0  0  0  0  0  0
    5.7405   -9.3841   46.2086 C   0  0  0  0  0  0  0  0  0  0  0  0
    4.5217   -8.4438   46.0582 C   0  0  0  0  0  0  0  0  0  0  0  0
    4.9910   -6.9906   45.8275 C   0  0  0  0  0  0  0  0  0  0  0  0
    5.9381   -6.5327   46.9419 C   0  0  0  0  0  0  0  0  0  0  0  0
    8.9960   -5.9415   47.1262 C   0  0  0  0  0  0  0  0  0  0  0  0
    8.1415   -4.7101   46.9315 C   0  0  0  0  0  0  0  0  0  0  0  0
    6.8326   -4.6711   47.4274 C   0  0  0  0  0  0  0  0  0  0  0  0
    6.0301   -3.5424   47.2471 C   0  0  0  0  0  0  0  0  0  0  0  0
    6.5250   -2.4368   46.5548 C   0  0  0  0  0  0  0  0  0  0  0  0
    7.8261   -2.4647   46.0502 C   0  0  0  0  0  0  0  0  0  0  0  0
    8.6262   -3.5930   46.2393 C   0  0  0  0  0  0  0  0  0  0  0  0
    3.6091   -8.8931   44.9036 C   0  0  0  0  0  0  0  0  0  0  0  0
    2.6084  -10.3447   45.3811 S   0  0  0  0  0  0  0  0  0  0  0  0
    1.0812   -9.4108   45.4507 C   0  0  0  0  0  0  0  0  0  0  0  0
    0.7485   -8.7561   46.4957 N   0  0  0  0  0  0  0  0  0  0  0  0
   -0.5325   -8.1103   46.4346 C   0  0  0  0  0  0  0  0  0  0  0  0
   -1.3220   -8.7860   45.3150 C   0  0  0  0  0  0  0  0  0  0  0  0
   -0.1108   -9.4485   44.1263 S   0  0  0  0  0  0  0  0  0  0  0  0
  3  1  2  0  0  0
  2  1  1  0  0  0
  1  9  1  0  0  0
  9 10  1  0  0  0
 10 11  2  0  0  0
 10 15  1  0  0  0
 11 12  1  0  0  0
 12 13  2  0  0  0
 13 14  1  0  0  0
 14 15  2  0  0  0
  4  5  1  0  0  0
  5  6  1  0  0  0
  6 16  1  0  0  0
 16 17  1  0  0  0
 17 18  1  0  0  0
 18 19  2  0  0  0
 19 20  1  0  0  0
 20 21  1  0  0  0
 21 22  1  0  0  0
  6  7  1  0  0  0
  7  8  1  0  0  0
 22 18  1  0  0  0
  2  4  1  0  0  0
  2  8  1  0  0  0
M  END
>  <CNNaffinity>
8.06253

>  <CNNscore>
0.940606

>  <minimizedAffinity>
1.32939

>  <minimizedRMSD>
1.6811

>  <molecular weight>
312.325

$$$$



 28 30  0  0  0  0  0  0  0  0999 V2000
    1.7482   -9.2358   45.6877 C   0  0  0  0  0  0  0  0  0  0  0  0
    2.6474   -8.5887   46.4626 N   0  0  0  0  0  0  0  0  0  0  0  0
    3.9193   -9.0244   46.2513 C   0  0  0  0  0  0  0  0  0  0  0  0
    4.0532  -10.0166   45.2839 C   0  0  0  0  0  0  0  0  0  0  0  0
    2.5183  -10.3633   44.6958 S   0  0  0  0  0  0  0  0  0  0  0  0
   -2.6530  -10.2299   47.8397 C   0  0  0  0  0  0  0  0  0  0  0  0
   -2.2550  -11.3224   48.3309 O   0  0  0  0  0  0  0  0  0  0  0  0
   -1.8796   -9.6024   46.7967 N   0  0  0  0  0  0  0  0  0  0  0  0
   -2.5008   -8.6712   45.8418 C   0  0  0  0  0  0  0  0  0  0  0  0
   -1.9493   -8.8858   44.4239 C   0  0  0  0  0  0  0  0  0  0  0  0
   -0.4203   -9.0987   44.3649 C   0  0  0  0  0  0  0  0  0  0  0  0
    0.2699   -8.9318   45.7319 C   0  0  0  0  0  0  0  0  0  0  0  0
   -0.4253   -9.8245   46.7739 C   0  0  0  0  0  0  0  0  0  0  0  0
   -4.6729  -10.2044   49.2520 C   0  0  0  0  0  0  0  0  0  0  0  0
   -3.8800   -9.5959   48.3713 C   0  0  0  0  0  0  0  0  0  0  0  0
    5.0876   -8.4188   46.9672 C   0  0  0  0  0  0  0  0  0  0  0  0
    5.6630   -7.2514   46.1661 C   0  0  0  0  0  0  0  0  0  0  0  0
    8.0089   -6.4685   46.6360 C   0  0  0  0  0  0  0  0  0  0  0  0
    6.6944   -6.4859   47.0047 N   0  0  0  0  0  0  0  0  0  0  0  0
    8.4169   -7.0573   45.6642 O   0  0  0  0  0  0  0  0  0  0  0  0
    6.2872   -6.0273   47.8221 H   0  0  0  0  0  0  0  0  0  0  0  0
    8.8963   -5.6393   47.5497 C   0  0  0  0  0  0  0  0  0  0  0  0
    8.5357   -4.1716   47.5672 C   0  0  0  0  0  0  0  0  0  0  0  0
    7.2401   -3.7650   47.9090 C   0  0  0  0  0  0  0  0  0  0  0  0
    6.8922   -2.4126   47.9211 C   0  0  0  0  0  0  0  0  0  0  0  0
    7.8372   -1.4449   47.5786 C   0  0  0  0  0  0  0  0  0  0  0  0
    9.1307   -1.8371   47.2303 C   0  0  0  0  0  0  0  0  0  0  0  0
    9.4750   -3.1900   47.2265 C   0  0  0  0  0  0  0  0  0  0  0  0
 20 18  2  0  0  0
 19 18  1  0  0  0
 18 22  1  0  0  0
 22 23  1  0  0  0
 23 24  2  0  0  0
 23 28  1  0  0  0
 24 25  1  0  0  0
 25 26  2  0  0  0
 26 27  1  0  0  0
 27 28  2  0  0  0
 14 15  2  0  0  0
 15  6  1  0  0  0
  6  7  2  0  0  0
  6  8  1  0  0  0
  8  9  1  0  0  0
  9 10  1  0  0  0
 10 11  1  0  0  0
 11 12  1  0  0  0
 12  1  1  0  0  0
  1  2  2  0  0  0
  2  3  1  0  0  0
  3 16  1  0  0  0
 16 17  1  0  0  0
  3  4  2  0  0  0
  4  5  1  0  0  0
 12 13  1  0  0  0
 13  8  1  0  0  0
  5  1  1  0  0  0
 19 17  1  0  0  0
 19 21  1  0  0  0
M  END
>  <CNNaffinity>
8.05241

>  <CNNscore>
0.898607

>  <minimizedAffinity>
0.25776

>  <minimizedRMSD>
2.25356

>  <molecular weight>
359.317

$$$$



 37 40  0  0  0  0  0  0  0  0999 V2000
    2.5615   -8.9672   45.7453 N   0  0  0  0  0  0  0  0  0  0  0  0
    3.1610   -9.0929   44.9745 H   0  0  0  0  0  0  0  0  0  0  0  0
    1.1722   -9.3114   45.6212 C   0  0  0  0  0  0  0  0  0  0  0  0
    0.3002   -8.9569   46.6061 N   0  0  0  0  0  0  0  0  0  0  0  0
   -1.0224   -9.2604   46.5302 C   0  0  0  0  0  0  0  0  0  0  0  0
   -1.4958   -9.9420   45.4529 N   0  0  0  0  0  0  0  0  0  0  0  0
   -0.6711  -10.3117   44.4406 C   0  0  0  0  0  0  0  0  0  0  0  0
    0.6876   -9.9977   44.4922 C   0  0  0  0  0  0  0  0  0  0  0  0
    1.7319  -10.4969   43.1641 Cl  0  0  0  0  0  0  0  0  0  0  0  0
   -1.9039   -8.8613   47.5861 N   0  0  0  0  0  0  0  0  0  0  0  0
   -1.9834   -7.9038   47.8012 H   0  0  0  0  0  0  0  0  0  0  0  0
   -2.6931   -9.8277   48.3591 C   0  0  0  0  0  0  0  0  0  0  0  0
   -3.5993   -9.1440   49.3920 C   0  0  0  0  0  0  0  0  0  0  0  0
   -4.8639   -9.9923   49.4533 C   0  0  0  0  0  0  0  0  0  0  0  0
   -4.8633  -10.7790   48.2320 N   0  0  0  0  0  0  0  0  0  0  0  0
   -5.9371  -11.6481   47.8306 C   0  0  0  0  0  0  0  0  0  0  0  0
   -7.1771  -11.7776   48.6603 C   0  0  0  0  0  0  0  0  0  0  0  0
   -5.8438  -12.3083   46.7599 O   0  0  0  0  0  0  0  0  0  0  0  0
   -3.6383  -10.6302   47.4655 C   0  0  0  0  0  0  0  0  0  0  0  0
    3.1027   -8.4330   46.9964 C   0  0  0  0  0  0  0  0  0  0  0  0
    5.7268   -5.7380   46.3202 C   0  0  0  0  0  0  0  0  0  0  0  0
    6.8996   -6.5146   46.2878 C   0  0  0  0  0  0  0  0  0  0  0  0
    6.8353   -7.8982   46.4791 C   0  0  0  0  0  0  0  0  0  0  0  0
    5.6062   -8.5180   46.7164 C   0  0  0  0  0  0  0  0  0  0  0  0
    4.4274   -7.7557   46.7611 C   0  0  0  0  0  0  0  0  0  0  0  0
    4.4957   -6.3664   46.5628 C   0  0  0  0  0  0  0  0  0  0  0  0
    7.0039   -3.6336   45.9021 C   0  0  0  0  0  0  0  0  0  0  0  0
    5.8076   -4.2340   46.1712 N   0  0  0  0  0  0  0  0  0  0  0  0
    7.9384   -4.2344   45.4295 O   0  0  0  0  0  0  0  0  0  0  0  0
    4.8930   -3.7826   46.2299 H   0  0  0  0  0  0  0  0  0  0  0  0
    7.0425   -2.1527   46.2416 C   0  0  0  0  0  0  0  0  0  0  0  0
    6.1387   -1.3125   45.3689 C   0  0  0  0  0  0  0  0  0  0  0  0
    4.8216   -1.7163   45.1182 C   0  0  0  0  0  0  0  0  0  0  0  0
    3.9790   -0.9531   44.3072 C   0  0  0  0  0  0  0  0  0  0  0  0
    4.4488    0.2240   43.7239 C   0  0  0  0  0  0  0  0  0  0  0  0
    5.7615    0.6350   43.9609 C   0  0  0  0  0  0  0  0  0  0  0  0
    6.5973   -0.1283   44.7780 C   0  0  0  0  0  0  0  0  0  0  0  0
 29 27  2  0  0  0
 28 27  1  0  0  0
 27 31  1  0  0  0
 31 32  1  0  0  0
 32 33  2  0  0  0
 32 37  1  0  0  0
 33 34  1  0  0  0
 34 35  2  0  0  0
 35 36  1  0  0  0
 36 37  2  0  0  0
 21 22  2  0  0  0
 22 23  1  0  0  0
 23 24  2  0  0  0
 24 25  1  0  0  0
 25 20  1  0  0  0
 20  1  1  0  0  0
  1  3  1  0  0  0
  3  4  2  0  0  0
  4  5  1  0  0  0
  5 10  1  0  0  0
 10 12  1  0  0  0
 12 13  1  0  0  0
 13 14  1  0  0  0
 14 15  1  0  0  0
 15 16  1  0  0  0
 16 17  1  0  0  0
 16 18  2  0  0  0
 15 19  1  0  0  0
  5  6  2  0  0  0
  6  7  1  0  0  0
  7  8  2  0  0  0
  8  9  1  0  0  0
 25 26  2  0  0  0
 26 21  1  0  0  0
  8  3  1  0  0  0
 19 12  1  0  0  0
 28 21  1  0  0  0
 28 30  1  0  0  0
  1  2  1  0  0  0
 10 11  1  0  0  0
M  END
>  <CNNaffinity>
8.04613

>  <CNNscore>
0.284199

>  <minimizedAffinity>
11.7859

>  <minimizedRMSD>
4.21776

>  <molecular weight>
454.783

$$$$



 28 31  0  0  0  0  0  0  0  0999 V2000
    8.4257   -7.6791   46.6488 C   0  0  0  0  0  0  0  0  0  0  0  0
    7.0895   -7.7799   46.9108 N   0  0  0  0  0  0  0  0  0  0  0  0
    9.0450   -8.5550   46.0948 O   0  0  0  0  0  0  0  0  0  0  0  0
    5.9921   -6.8829   46.5399 C   0  0  0  0  0  0  0  0  0  0  0  0
    4.8061   -7.3682   47.3816 C   0  0  0  0  0  0  0  0  0  0  0  0
    5.0228   -8.8885   47.3702 C   0  0  0  0  0  0  0  0  0  0  0  0
    6.2925   -9.0148   46.5125 C   0  0  0  0  0  0  0  0  0  0  0  0
    5.9717   -8.7303   45.0308 C   0  0  0  0  0  0  0  0  0  0  0  0
    5.7189   -7.2048   45.0583 C   0  0  0  0  0  0  0  0  0  0  0  0
    4.8987   -9.5905   44.5008 N   0  0  0  0  0  0  0  0  0  0  0  0
    5.1784  -10.3155   43.8963 H   0  0  0  0  0  0  0  0  0  0  0  0
    3.4923   -9.4902   44.7667 C   0  0  0  0  0  0  0  0  0  0  0  0
    2.7895   -8.3864   44.4004 N   0  0  0  0  0  0  0  0  0  0  0  0
    1.4718   -8.2573   44.6994 C   0  0  0  0  0  0  0  0  0  0  0  0
    0.8080   -9.2716   45.4022 C   0  0  0  0  0  0  0  0  0  0  0  0
    1.5647  -10.3753   45.8187 C   0  0  0  0  0  0  0  0  0  0  0  0
    2.8813  -10.4603   45.4964 N   0  0  0  0  0  0  0  0  0  0  0  0
   -0.6408   -9.1330   45.7915 C   0  0  0  0  0  0  0  0  0  0  0  0
   -0.7243   -8.5247   47.0296 F   0  0  0  0  0  0  0  0  0  0  0  0
   -1.2456  -10.3762   45.8572 F   0  0  0  0  0  0  0  0  0  0  0  0
   -1.3250   -8.3660   44.8648 F   0  0  0  0  0  0  0  0  0  0  0  0
    9.0486   -6.3708   47.1070 C   0  0  0  0  0  0  0  0  0  0  0  0
    8.1532   -5.1720   46.8940 C   0  0  0  0  0  0  0  0  0  0  0  0
    6.7624   -5.3271   46.8443 C   0  0  0  0  0  0  0  0  0  0  0  0
    5.9247   -4.2286   46.6399 C   0  0  0  0  0  0  0  0  0  0  0  0
    6.4704   -2.9558   46.4702 C   0  0  0  0  0  0  0  0  0  0  0  0
    7.8555   -2.7880   46.5117 C   0  0  0  0  0  0  0  0  0  0  0  0
    8.6879   -3.8886   46.7231 C   0  0  0  0  0  0  0  0  0  0  0  0
  3  1  2  0  0  0
  2  1  1  0  0  0
  1 22  1  0  0  0
 22 23  1  0  0  0
 23 24  2  0  0  0
 23 28  1  0  0  0
 24 25  1  0  0  0
 25 26  2  0  0  0
 26 27  1  0  0  0
 27 28  2  0  0  0
  4  5  1  0  0  0
  5  6  1  0  0  0
  6  7  1  0  0  0
  7  8  1  0  0  0
  8 10  1  0  0  0
 10 12  1  0  0  0
 12 13  2  0  0  0
 13 14  1  0  0  0
 14 15  2  0  0  0
 15 18  1  0  0  0
 18 19  1  0  0  0
 18 20  1  0  0  0
 18 21  1  0  0  0
 15 16  1  0  0  0
 16 17  2  0  0  0
  8  9  1  0  0  0
 17 12  1  0  0  0
  9  4  1  0  0  0
  2  4  1  0  0  0
  2  7  1  0  0  0
 10 11  1  0  0  0
M  END
>  <CNNaffinity>
8.02088

>  <CNNscore>
0.754604

>  <minimizedAffinity>
-0.1184

>  <minimizedRMSD>
3.00079

>  <molecular weight>
358.233

$$$$



 37 41  0  0  0  0  0  0  0  0999 V2000
    1.4947   -8.6578   45.6556 C   0  0  0  0  0  0  0  0  0  0  0  0
    0.8481   -7.5429   45.6344 N   0  0  0  0  0  0  0  0  0  0  0  0
   -0.4996   -7.7828   45.6098 O   0  0  0  0  0  0  0  0  0  0  0  0
   -0.8116   -9.1688   45.6252 C   0  0  0  0  0  0  0  0  0  0  0  0
    0.5802   -9.8434   45.6425 C   0  0  0  0  0  0  0  0  0  0  0  0
   -1.6716   -9.5231   44.4074 C   0  0  0  0  0  0  0  0  0  0  0  0
   -3.1157   -9.3445   44.8834 C   0  0  0  0  0  0  0  0  0  0  0  0
   -3.0544   -9.4564   46.3384 N   0  0  0  0  0  0  0  0  0  0  0  0
   -4.2255   -9.5878   47.1672 C   0  0  0  0  0  0  0  0  0  0  0  0
   -5.3709   -9.5537   46.6391 O   0  0  0  0  0  0  0  0  0  0  0  0
   -1.6876   -9.4934   46.8379 C   0  0  0  0  0  0  0  0  0  0  0  0
    5.1256   -7.7493   46.3295 C   0  0  0  0  0  0  0  0  0  0  0  0
    5.7846   -8.8540   45.7635 C   0  0  0  0  0  0  0  0  0  0  0  0
    5.0520   -9.8721   45.1511 C   0  0  0  0  0  0  0  0  0  0  0  0
    3.6576   -9.8082   45.1075 C   0  0  0  0  0  0  0  0  0  0  0  0
    2.9763   -8.7228   45.6860 C   0  0  0  0  0  0  0  0  0  0  0  0
    3.7232   -7.7005   46.3012 C   0  0  0  0  0  0  0  0  0  0  0  0
    7.2861   -6.7575   47.1287 C   0  0  0  0  0  0  0  0  0  0  0  0
    5.9290   -6.6533   47.0214 N   0  0  0  0  0  0  0  0  0  0  0  0
    7.9316   -7.5280   46.4600 O   0  0  0  0  0  0  0  0  0  0  0  0
    5.3394   -5.8728   47.3111 H   0  0  0  0  0  0  0  0  0  0  0  0
    7.8995   -5.8152   48.1513 C   0  0  0  0  0  0  0  0  0  0  0  0
    8.0812   -4.4058   47.6365 C   0  0  0  0  0  0  0  0  0  0  0  0
    6.9832   -3.6791   47.1600 C   0  0  0  0  0  0  0  0  0  0  0  0
    7.1392   -2.3792   46.6742 C   0  0  0  0  0  0  0  0  0  0  0  0
    8.4037   -1.7902   46.6478 C   0  0  0  0  0  0  0  0  0  0  0  0
    9.5076   -2.5057   47.1144 C   0  0  0  0  0  0  0  0  0  0  0  0
    9.3449   -3.8024   47.6053 C   0  0  0  0  0  0  0  0  0  0  0  0
   -3.6615   -8.0015   44.4626 C   0  0  0  0  0  0  0  0  0  0  0  0
   -4.4270   -7.8867   43.2639 N   0  0  0  0  0  0  0  0  0  0  0  0
   -3.4256   -6.9706   45.1495 O   0  0  0  0  0  0  0  0  0  0  0  0
   -4.6157   -8.6866   42.7219 H   0  0  0  0  0  0  0  0  0  0  0  0
   -4.7665   -7.0076   42.9789 H   0  0  0  0  0  0  0  0  0  0  0  0
   -4.1197   -9.6938   48.6642 C   0  0  0  0  0  0  0  0  0  0  0  0
   -4.4650   -8.4644   49.5092 C   0  0  0  0  0  0  0  0  0  0  0  0
   -4.5808  -11.0234   49.2534 C   0  0  0  0  0  0  0  0  0  0  0  0
   -3.0980  -10.6797   49.2175 C   0  0  0  0  0  0  0  0  0  0  0  0
 20 18  2  0  0  0
 19 18  1  0  0  0
 18 22  1  0  0  0
 22 23  1  0  0  0
 23 24  2  0  0  0
 23 28  1  0  0  0
 24 25  1  0  0  0
 25 26  2  0  0  0
 26 27  1  0  0  0
 27 28  2  0  0  0
 12 13  2  0  0  0
 13 14  1  0  0  0
 14 15  2  0  0  0
 15 16  1  0  0  0
 16  1  1  0  0  0
  1  2  2  0  0  0
  2  3  1  0  0  0
  3  4  1  0  0  0
  4  5  1  0  0  0
  4  6  1  0  0  0
  6  7  1  0  0  0
  7 29  1  0  0  0
 29 30  1  0  0  0
 29 31  2  0  0  0
  7  8  1  0  0  0
  8  9  1  0  0  0
  9 10  2  0  0  0
  9 34  1  0  0  0
 34 35  1  0  0  0
 34 36  1  0  0  0
 36 37  1  0  0  0
  8 11  1  0  0  0
 16 17  2  0  0  0
 17 12  1  0  0  0
  5  1  1  0  0  0
 37 34  1  0  0  0
 11  4  1  0  0  0
 19 12  1  0  0  0
 19 21  1  0  0  0
 30 32  1  0  0  0
 30 33  1  0  0  0
M  END
>  <CNNaffinity>
7.99489

>  <CNNscore>
0.86947

>  <minimizedAffinity>
7.18356

>  <minimizedRMSD>
2.00722

>  <molecular weight>
435.326

$$$$
