


 29 32  0  0  0  0  0  0  0  0999 V2000
    3.1060   -8.7438   46.1209 C   0  0  0  0  0  0  0  0  0  0  0  0
    4.0522   -7.3720   45.7123 S   0  0  0  0  0  0  0  0  0  0  0  0
    3.3585   -9.1732   47.3394 N   0  0  0  0  0  0  0  0  0  0  0  0
    4.3530   -8.4859   47.9660 N   0  0  0  0  0  0  0  0  0  0  0  0
    4.8091   -7.5185   47.2361 C   0  0  0  0  0  0  0  0  0  0  0  0
    2.1933   -9.3239   45.2338 N   0  0  0  0  0  0  0  0  0  0  0  0
    1.6798  -10.7049   45.5297 C   0  0  0  0  0  0  0  0  0  0  0  0
    0.2450  -10.6523   46.0772 C   0  0  0  0  0  0  0  0  0  0  0  0
   -0.7798  -10.3216   44.9766 C   0  0  0  0  0  0  0  0  0  0  0  0
   -1.0329   -8.8033   44.7430 C   0  0  0  0  0  0  0  0  0  0  0  0
    0.2446   -7.9145   44.7580 C   0  0  0  0  0  0  0  0  0  0  0  0
    1.4957   -8.5865   44.1756 C   0  0  0  0  0  0  0  0  0  0  0  0
   -2.0960   -8.2482   45.7615 C   0  0  0  0  0  0  0  0  0  0  0  0
   -3.2552   -7.8952   44.9582 N   0  0  0  0  0  0  0  0  0  0  0  0
   -2.9282   -8.1519   43.6157 C   0  0  0  0  0  0  0  0  0  0  0  0
   -3.7097   -7.9328   42.6542 O   0  0  0  0  0  0  0  0  0  0  0  0
   -1.6619   -8.6647   43.4675 O   0  0  0  0  0  0  0  0  0  0  0  0
   -4.1110   -7.5417   45.2927 H   0  0  0  0  0  0  0  0  0  0  0  0
    7.5650   -7.6927   46.4617 O   0  0  0  0  0  0  0  0  0  0  0  0
    5.8383   -6.6989   47.5208 N   0  0  0  0  0  0  0  0  0  0  0  0
    7.1492   -6.7927   47.1507 C   0  0  0  0  0  0  0  0  0  0  0  0
    5.6131   -5.9183   48.0768 H   0  0  0  0  0  0  0  0  0  0  0  0
    8.0218   -5.6643   47.6750 C   0  0  0  0  0  0  0  0  0  0  0  0
    7.4930   -4.2893   47.3372 C   0  0  0  0  0  0  0  0  0  0  0  0
    6.7372   -4.0871   46.1759 C   0  0  0  0  0  0  0  0  0  0  0  0
    6.2498   -2.8201   45.8484 C   0  0  0  0  0  0  0  0  0  0  0  0
    6.5231   -1.7309   46.6764 C   0  0  0  0  0  0  0  0  0  0  0  0
    7.2803   -1.9174   47.8341 C   0  0  0  0  0  0  0  0  0  0  0  0
    7.7592   -3.1875   48.1602 C   0  0  0  0  0  0  0  0  0  0  0  0
  6  1  1  0  0  0
 19 21  2  0  0  0
  2  1  1  0  0  0
  2  5  1  0  0  0
  3  4  1  0  0  0
  3  1  2  0  0  0
  4  5  2  0  0  0
 20 21  1  0  0  0
 20  5  1  0  0  0
 21 23  1  0  0  0
 23 24  1  0  0  0
 24 25  2  0  0  0
 24 29  1  0  0  0
 25 26  1  0  0  0
 26 27  2  0  0  0
 27 28  1  0  0  0
 28 29  2  0  0  0
  7  8  1  0  0  0
  8  9  1  0  0  0
  9 10  1  0  0  0
 10 11  1  0  0  0
 11 12  1  0  0  0
 10 13  1  0  0  0
 13 14  1  0  0  0
 14 15  1  0  0  0
 15 16  2  0  0  0
 15 17  1  0  0  0
 17 10  1  0  0  0
  6  7  1  0  0  0
  6 12  1  0  0  0
 20 22  1  0  0  0
 14 18  1  0  0  0
M  END
>  <minimizedAffinity>
-10.1833

>  <minimizedRMSD>
1.46613

>  <molecular weight>
368.305

$$$$



 34 38  0  0  0  0  0  0  0  0999 V2000
    2.7785   -9.8623   45.4135 N   0  0  0  0  0  0  0  0  0  0  0  0
    2.8164  -10.8417   45.5061 H   0  0  0  0  0  0  0  0  0  0  0  0
    1.9245   -9.3316   44.4182 C   0  0  0  0  0  0  0  0  0  0  0  0
    0.4860   -9.6370   44.6792 C   0  0  0  0  0  0  0  0  0  0  0  0
    0.0834   -8.2477   44.9676 N   0  0  0  0  0  0  0  0  0  0  0  0
   -1.1033   -7.5366   45.3172 C   0  0  0  0  0  0  0  0  0  0  0  0
   -1.0611   -6.2853   45.4555 O   0  0  0  0  0  0  0  0  0  0  0  0
    1.4987   -7.9280   44.7102 C   0  0  0  0  0  0  0  0  0  0  0  0
   -2.3901   -8.2683   45.5479 C   0  0  0  0  0  0  0  0  0  0  0  0
   -3.5137   -7.6050   44.7984 C   0  0  0  0  0  0  0  0  0  0  0  0
   -3.2885   -7.0465   43.5129 C   0  0  0  0  0  0  0  0  0  0  0  0
   -4.3364   -6.4228   42.8112 C   0  0  0  0  0  0  0  0  0  0  0  0
   -5.5873   -6.3757   43.4182 C   0  0  0  0  0  0  0  0  0  0  0  0
   -5.8108   -6.9079   44.6459 C   0  0  0  0  0  0  0  0  0  0  0  0
   -4.8031   -7.5336   45.3737 C   0  0  0  0  0  0  0  0  0  0  0  0
   -7.1335   -6.7173   44.9964 O   0  0  0  0  0  0  0  0  0  0  0  0
   -7.7807   -6.0218   43.9217 C   0  0  0  0  0  0  0  0  0  0  0  0
   -6.7580   -5.8236   42.9354 O   0  0  0  0  0  0  0  0  0  0  0  0
    3.5729   -9.0997   46.2760 C   0  0  0  0  0  0  0  0  0  0  0  0
    4.5327   -7.7850   45.7333 S   0  0  0  0  0  0  0  0  0  0  0  0
    3.6935   -9.2977   47.5718 N   0  0  0  0  0  0  0  0  0  0  0  0
    4.5967   -8.4724   48.1691 N   0  0  0  0  0  0  0  0  0  0  0  0
    5.1141   -7.6312   47.3315 C   0  0  0  0  0  0  0  0  0  0  0  0
    7.8586   -7.6288   46.4994 O   0  0  0  0  0  0  0  0  0  0  0  0
    6.0881   -6.7345   47.5747 N   0  0  0  0  0  0  0  0  0  0  0  0
    7.3943   -6.7443   47.1774 C   0  0  0  0  0  0  0  0  0  0  0  0
    5.8195   -5.9587   48.1181 H   0  0  0  0  0  0  0  0  0  0  0  0
    8.1953   -5.5449   47.6567 C   0  0  0  0  0  0  0  0  0  0  0  0
    7.5618   -4.2191   47.3026 C   0  0  0  0  0  0  0  0  0  0  0  0
    6.7844   -4.0928   46.1448 C   0  0  0  0  0  0  0  0  0  0  0  0
    6.2004   -2.8714   45.8022 C   0  0  0  0  0  0  0  0  0  0  0  0
    6.3968   -1.7518   46.6113 C   0  0  0  0  0  0  0  0  0  0  0  0
    7.1743   -1.8625   47.7652 C   0  0  0  0  0  0  0  0  0  0  0  0
    7.7501   -3.0876   48.1064 C   0  0  0  0  0  0  0  0  0  0  0  0
  1 19  1  0  0  0
 24 26  2  0  0  0
 20 19  1  0  0  0
 20 23  1  0  0  0
 21 22  1  0  0  0
 21 19  2  0  0  0
 22 23  2  0  0  0
 25 26  1  0  0  0
 25 23  1  0  0  0
 26 28  1  0  0  0
 28 29  1  0  0  0
 29 30  2  0  0  0
 29 34  1  0  0  0
 30 31  1  0  0  0
 31 32  2  0  0  0
 32 33  1  0  0  0
 33 34  2  0  0  0
  3  4  1  0  0  0
  4  5  1  0  0  0
  5  6  1  0  0  0
  6  7  2  0  0  0
  6  9  1  0  0  0
  9 10  1  0  0  0
 10 11  2  0  0  0
 11 12  1  0  0  0
 12 13  2  0  0  0
 13 14  1  0  0  0
 14 15  2  0  0  0
 14 16  1  0  0  0
 16 17  1  0  0  0
 17 18  1  0  0  0
  5  8  1  0  0  0
  8  3  1  0  0  0
 15 10  1  0  0  0
 18 13  1  0  0  0
  1  3  1  0  0  0
  1  2  1  0  0  0
 25 27  1  0  0  0
M  END
>  <minimizedAffinity>
-9.75372

>  <minimizedRMSD>
2.63474

>  <molecular weight>
432.347

$$$$



 32 35  0  0  0  0  0  0  0  0999 V2000
    2.1198   -8.6426   46.0387 C   0  0  0  0  0  0  0  0  0  0  0  0
    3.1448   -7.5073   45.2613 S   0  0  0  0  0  0  0  0  0  0  0  0
    2.5993   -9.0245   47.2038 N   0  0  0  0  0  0  0  0  0  0  0  0
    3.8201   -8.4952   47.4924 N   0  0  0  0  0  0  0  0  0  0  0  0
    4.2294   -7.6859   46.5682 C   0  0  0  0  0  0  0  0  0  0  0  0
    0.9284   -9.1008   45.4670 N   0  0  0  0  0  0  0  0  0  0  0  0
   -0.4592   -9.3813   45.9383 C   0  0  0  0  0  0  0  0  0  0  0  0
   -0.9940   -9.8060   44.6042 C   0  0  0  0  0  0  0  0  0  0  0  0
    0.4084   -9.5346   44.1521 C   0  0  0  0  0  0  0  0  0  0  0  0
   -2.0371   -8.8865   44.0155 C   0  0  0  0  0  0  0  0  0  0  0  0
   -2.2336   -8.9222   42.7711 O   0  0  0  0  0  0  0  0  0  0  0  0
   -2.7718   -7.9603   44.8382 N   0  0  0  0  0  0  0  0  0  0  0  0
   -2.4712   -7.8262   45.7661 H   0  0  0  0  0  0  0  0  0  0  0  0
   -3.9178   -7.2198   44.3852 C   0  0  0  0  0  0  0  0  0  0  0  0
   -3.7532   -6.2288   43.4069 C   0  0  0  0  0  0  0  0  0  0  0  0
   -4.8468   -5.4789   42.9656 C   0  0  0  0  0  0  0  0  0  0  0  0
   -6.1241   -5.7054   43.5010 C   0  0  0  0  0  0  0  0  0  0  0  0
   -7.2914   -4.8762   43.0496 C   0  0  0  0  0  0  0  0  0  0  0  0
   -6.2857   -6.6685   44.5108 C   0  0  0  0  0  0  0  0  0  0  0  0
   -7.5012   -6.8732   45.0791 F   0  0  0  0  0  0  0  0  0  0  0  0
   -5.1901   -7.4192   44.9498 C   0  0  0  0  0  0  0  0  0  0  0  0
    6.7087   -8.3079   47.8685 O   0  0  0  0  0  0  0  0  0  0  0  0
    5.4183   -7.0580   46.5036 N   0  0  0  0  0  0  0  0  0  0  0  0
    6.5931   -7.3595   47.1305 C   0  0  0  0  0  0  0  0  0  0  0  0
    5.4445   -6.2661   45.9193 H   0  0  0  0  0  0  0  0  0  0  0  0
    7.7297   -6.4040   46.8065 C   0  0  0  0  0  0  0  0  0  0  0  0
    7.3477   -4.9479   46.9425 C   0  0  0  0  0  0  0  0  0  0  0  0
    7.6984   -4.2284   48.0914 C   0  0  0  0  0  0  0  0  0  0  0  0
    7.3444   -2.8849   48.2328 C   0  0  0  0  0  0  0  0  0  0  0  0
    6.6213   -2.2434   47.2267 C   0  0  0  0  0  0  0  0  0  0  0  0
    6.2602   -2.9507   46.0788 C   0  0  0  0  0  0  0  0  0  0  0  0
    6.6227   -4.2917   45.9398 C   0  0  0  0  0  0  0  0  0  0  0  0
  6  1  1  0  0  0
 22 24  2  0  0  0
  2  1  1  0  0  0
  2  5  1  0  0  0
  3  4  1  0  0  0
  3  1  2  0  0  0
  4  5  2  0  0  0
 23 24  1  0  0  0
 23  5  1  0  0  0
 24 26  1  0  0  0
 26 27  1  0  0  0
 27 28  2  0  0  0
 27 32  1  0  0  0
 28 29  1  0  0  0
 29 30  2  0  0  0
 30 31  1  0  0  0
 31 32  2  0  0  0
  7  8  1  0  0  0
  8 10  1  0  0  0
 10 11  2  0  0  0
 10 12  1  0  0  0
 12 14  1  0  0  0
 14 15  2  0  0  0
 15 16  1  0  0  0
 16 17  2  0  0  0
 17 18  1  0  0  0
 17 19  1  0  0  0
 19 20  1  0  0  0
 19 21  2  0  0  0
  8  9  1  0  0  0
 21 14  1  0  0  0
  6  7  1  0  0  0
  6  9  1  0  0  0
 23 25  1  0  0  0
 12 13  1  0  0  0
M  END
>  <minimizedAffinity>
-9.7121

>  <minimizedRMSD>
2.32569

>  <molecular weight>
407.336

$$$$



 34 38  0  0  0  0  0  0  0  0999 V2000
    1.3781   -9.2450   45.1067 N   0  0  0  0  0  0  0  0  0  0  0  0
    1.4644  -10.1088   44.6423 H   0  0  0  0  0  0  0  0  0  0  0  0
    0.2197   -8.5144   44.8713 C   0  0  0  0  0  0  0  0  0  0  0  0
   -0.0441   -7.3099   45.5499 C   0  0  0  0  0  0  0  0  0  0  0  0
   -1.2470   -6.6320   45.3389 C   0  0  0  0  0  0  0  0  0  0  0  0
   -2.2018   -7.1498   44.4561 C   0  0  0  0  0  0  0  0  0  0  0  0
   -1.9405   -8.3458   43.7640 C   0  0  0  0  0  0  0  0  0  0  0  0
   -0.7275   -9.0185   43.9687 C   0  0  0  0  0  0  0  0  0  0  0  0
   -2.9501   -8.8560   42.7763 C   0  0  0  0  0  0  0  0  0  0  0  0
   -4.3646   -8.5227   43.2563 C   0  0  0  0  0  0  0  0  0  0  0  0
   -4.5097   -7.0057   43.5086 C   0  0  0  0  0  0  0  0  0  0  0  0
   -3.4266   -6.4890   44.2946 O   0  0  0  0  0  0  0  0  0  0  0  0
   -5.8160   -6.7119   44.2046 C   0  0  0  0  0  0  0  0  0  0  0  0
   -6.0253   -7.1441   45.5277 C   0  0  0  0  0  0  0  0  0  0  0  0
   -7.2328   -6.8710   46.1785 C   0  0  0  0  0  0  0  0  0  0  0  0
   -8.2382   -6.1581   45.5183 C   0  0  0  0  0  0  0  0  0  0  0  0
   -8.0468   -5.7422   44.1978 C   0  0  0  0  0  0  0  0  0  0  0  0
   -6.8410   -6.0118   43.5417 C   0  0  0  0  0  0  0  0  0  0  0  0
    2.4326   -8.8650   45.9434 C   0  0  0  0  0  0  0  0  0  0  0  0
    3.4118   -7.4902   45.6350 S   0  0  0  0  0  0  0  0  0  0  0  0
    2.8063   -9.5037   47.0322 N   0  0  0  0  0  0  0  0  0  0  0  0
    3.9163   -8.9784   47.6201 N   0  0  0  0  0  0  0  0  0  0  0  0
    4.3424   -7.9250   46.9992 C   0  0  0  0  0  0  0  0  0  0  0  0
    6.8403   -7.8147   45.5945 O   0  0  0  0  0  0  0  0  0  0  0  0
    5.4530   -7.2139   47.2693 N   0  0  0  0  0  0  0  0  0  0  0  0
    6.6401   -7.1714   46.5963 C   0  0  0  0  0  0  0  0  0  0  0  0
    5.4017   -6.6412   48.0685 H   0  0  0  0  0  0  0  0  0  0  0  0
    7.6692   -6.2406   47.2164 C   0  0  0  0  0  0  0  0  0  0  0  0
    7.2938   -4.7798   47.1192 C   0  0  0  0  0  0  0  0  0  0  0  0
    6.5021   -4.3213   46.0592 C   0  0  0  0  0  0  0  0  0  0  0  0
    6.1550   -2.9728   45.9536 C   0  0  0  0  0  0  0  0  0  0  0  0
    6.6072   -2.0585   46.9056 C   0  0  0  0  0  0  0  0  0  0  0  0
    7.4019   -2.5012   47.9642 C   0  0  0  0  0  0  0  0  0  0  0  0
    7.7401   -3.8516   48.0685 C   0  0  0  0  0  0  0  0  0  0  0  0
  1 19  1  0  0  0
 24 26  2  0  0  0
 20 19  1  0  0  0
 20 23  1  0  0  0
 21 22  1  0  0  0
 21 19  2  0  0  0
 22 23  2  0  0  0
 25 26  1  0  0  0
 25 23  1  0  0  0
 26 28  1  0  0  0
 28 29  1  0  0  0
 29 30  2  0  0  0
 29 34  1  0  0  0
 30 31  1  0  0  0
 31 32  2  0  0  0
 32 33  1  0  0  0
 33 34  2  0  0  0
  3  4  2  0  0  0
  4  5  1  0  0  0
  5  6  2  0  0  0
  6  7  1  0  0  0
  7  8  2  0  0  0
  7  9  1  0  0  0
  9 10  1  0  0  0
 10 11  1  0  0  0
 11 13  1  0  0  0
 13 14  2  0  0  0
 14 15  1  0  0  0
 15 16  2  0  0  0
 16 17  1  0  0  0
 17 18  2  0  0  0
 11 12  1  0  0  0
  8  3  1  0  0  0
 18 13  1  0  0  0
 12  6  1  0  0  0
  1  3  1  0  0  0
  1  2  1  0  0  0
 25 27  1  0  0  0
M  END
>  <minimizedAffinity>
-9.58858

>  <minimizedRMSD>
2.4424

>  <molecular weight>
422.374

$$$$



 29 32  0  0  0  0  0  0  0  0999 V2000
    4.2501   -8.0663   46.6821 C   0  0  0  0  0  0  0  0  0  0  0  0
    5.0712   -6.6260   46.2401 S   0  0  0  0  0  0  0  0  0  0  0  0
    4.7355   -8.5928   47.7867 N   0  0  0  0  0  0  0  0  0  0  0  0
    5.8130   -7.9246   48.2830 N   0  0  0  0  0  0  0  0  0  0  0  0
    6.1023   -6.8778   47.5779 C   0  0  0  0  0  0  0  0  0  0  0  0
    3.2017   -8.6011   45.9262 N   0  0  0  0  0  0  0  0  0  0  0  0
    3.0786  -10.0658   46.2284 C   0  0  0  0  0  0  0  0  0  0  0  0
    1.8459  -10.6496   45.5223 C   0  0  0  0  0  0  0  0  0  0  0  0
    0.6560   -9.6717   45.6350 C   0  0  0  0  0  0  0  0  0  0  0  0
    0.9833   -8.2990   44.9818 C   0  0  0  0  0  0  0  0  0  0  0  0
    2.4900   -8.0314   44.8342 C   0  0  0  0  0  0  0  0  0  0  0  0
   -0.6306  -10.2688   45.0224 C   0  0  0  0  0  0  0  0  0  0  0  0
   -1.6408   -9.2087   44.6556 C   0  0  0  0  0  0  0  0  0  0  0  0
   -2.2531   -8.4322   45.6542 C   0  0  0  0  0  0  0  0  0  0  0  0
   -3.1920   -7.4547   45.3102 C   0  0  0  0  0  0  0  0  0  0  0  0
   -3.5289   -7.2470   43.9701 C   0  0  0  0  0  0  0  0  0  0  0  0
   -2.9296   -8.0185   42.9714 C   0  0  0  0  0  0  0  0  0  0  0  0
   -1.9913   -8.9980   43.3108 C   0  0  0  0  0  0  0  0  0  0  0  0
    8.7700   -7.0455   46.5387 O   0  0  0  0  0  0  0  0  0  0  0  0
    7.1471   -6.0459   47.7460 N   0  0  0  0  0  0  0  0  0  0  0  0
    8.4160   -6.1366   47.2502 C   0  0  0  0  0  0  0  0  0  0  0  0
    6.9707   -5.2573   48.3084 H   0  0  0  0  0  0  0  0  0  0  0  0
    9.3258   -4.9928   47.6670 C   0  0  0  0  0  0  0  0  0  0  0  0
    8.7199   -3.6278   47.4346 C   0  0  0  0  0  0  0  0  0  0  0  0
    7.5618   -3.2414   48.1204 C   0  0  0  0  0  0  0  0  0  0  0  0
    6.9875   -1.9862   47.9086 C   0  0  0  0  0  0  0  0  0  0  0  0
    7.5604   -1.1009   46.9950 C   0  0  0  0  0  0  0  0  0  0  0  0
    8.7117   -1.4758   46.3004 C   0  0  0  0  0  0  0  0  0  0  0  0
    9.2854   -2.7292   46.5211 C   0  0  0  0  0  0  0  0  0  0  0  0
  6  1  1  0  0  0
 19 21  2  0  0  0
  2  1  1  0  0  0
  2  5  1  0  0  0
  3  4  1  0  0  0
  3  1  2  0  0  0
  4  5  2  0  0  0
 20 21  1  0  0  0
 20  5  1  0  0  0
 21 23  1  0  0  0
 23 24  1  0  0  0
 24 25  2  0  0  0
 24 29  1  0  0  0
 25 26  1  0  0  0
 26 27  2  0  0  0
 27 28  1  0  0  0
 28 29  2  0  0  0
  7  8  1  0  0  0
  8  9  1  0  0  0
  9 12  1  0  0  0
 12 13  1  0  0  0
 13 14  2  0  0  0
 14 15  1  0  0  0
 15 16  2  0  0  0
 16 17  1  0  0  0
 17 18  2  0  0  0
  9 10  1  0  0  0
 10 11  1  0  0  0
 18 13  1  0  0  0
  6  7  1  0  0  0
  6 11  1  0  0  0
 20 22  1  0  0  0
M  END
>  <minimizedAffinity>
-9.56373

>  <minimizedRMSD>
1.75273

>  <molecular weight>
369.335

$$$$



 34 38  0  0  0  0  0  0  0  0999 V2000
    2.4625   -9.3722   46.0376 N   0  0  0  0  0  0  0  0  0  0  0  0
    1.0821   -9.8415   46.3643 C   0  0  0  0  0  0  0  0  0  0  0  0
    0.7485  -10.3001   44.9786 C   0  0  0  0  0  0  0  0  0  0  0  0
    2.1450   -9.8567   44.6748 C   0  0  0  0  0  0  0  0  0  0  0  0
    3.5153   -8.7601   46.7256 C   0  0  0  0  0  0  0  0  0  0  0  0
    4.2799   -7.3290   46.1675 S   0  0  0  0  0  0  0  0  0  0  0  0
    4.0473   -9.1996   47.8467 N   0  0  0  0  0  0  0  0  0  0  0  0
    5.1179   -8.4705   48.2663 N   0  0  0  0  0  0  0  0  0  0  0  0
    5.3555   -7.4640   47.4870 C   0  0  0  0  0  0  0  0  0  0  0  0
    8.0979   -7.7740   46.7073 O   0  0  0  0  0  0  0  0  0  0  0  0
    6.3792   -6.5939   47.5698 N   0  0  0  0  0  0  0  0  0  0  0  0
    7.6837   -6.7524   47.1995 C   0  0  0  0  0  0  0  0  0  0  0  0
    6.1545   -5.7154   47.9531 H   0  0  0  0  0  0  0  0  0  0  0  0
    8.5515   -5.5310   47.4546 C   0  0  0  0  0  0  0  0  0  0  0  0
    7.8301   -4.2229   47.2248 C   0  0  0  0  0  0  0  0  0  0  0  0
    6.9971   -4.0600   46.1111 C   0  0  0  0  0  0  0  0  0  0  0  0
    6.3314   -2.8537   45.8831 C   0  0  0  0  0  0  0  0  0  0  0  0
    6.5000   -1.7853   46.7644 C   0  0  0  0  0  0  0  0  0  0  0  0
    7.3321   -1.9324   47.8754 C   0  0  0  0  0  0  0  0  0  0  0  0
    7.9898   -3.1427   48.1021 C   0  0  0  0  0  0  0  0  0  0  0  0
   -0.2837   -9.5471   44.3194 O   0  0  0  0  0  0  0  0  0  0  0  0
   -0.6979   -8.2343   44.6108 C   0  0  0  0  0  0  0  0  0  0  0  0
    0.1347   -7.3422   44.9257 O   0  0  0  0  0  0  0  0  0  0  0  0
   -2.1253   -7.8818   44.5547 C   0  0  0  0  0  0  0  0  0  0  0  0
   -2.6929   -7.4010   43.4401 C   0  0  0  0  0  0  0  0  0  0  0  0
   -4.1230   -7.0210   43.3465 C   0  0  0  0  0  0  0  0  0  0  0  0
   -5.1670   -7.9896   43.3033 C   0  0  0  0  0  0  0  0  0  0  0  0
   -6.5119   -7.5883   43.2041 C   0  0  0  0  0  0  0  0  0  0  0  0
   -6.7822   -6.2256   43.1407 C   0  0  0  0  0  0  0  0  0  0  0  0
   -5.7957   -5.2958   43.1672 C   0  0  0  0  0  0  0  0  0  0  0  0
   -4.4523   -5.6480   43.2636 C   0  0  0  0  0  0  0  0  0  0  0  0
   -6.3509   -4.0324   43.0824 O   0  0  0  0  0  0  0  0  0  0  0  0
   -7.7757   -4.1789   42.9974 C   0  0  0  0  0  0  0  0  0  0  0  0
   -8.0075   -5.5943   43.0370 O   0  0  0  0  0  0  0  0  0  0  0  0
  1  5  1  0  0  0
 10 12  2  0  0  0
  6  5  1  0  0  0
  6  9  1  0  0  0
  7  8  1  0  0  0
  7  5  2  0  0  0
  8  9  2  0  0  0
 11 12  1  0  0  0
 11  9  1  0  0  0
 12 14  1  0  0  0
 14 15  1  0  0  0
 15 16  2  0  0  0
 15 20  1  0  0  0
 16 17  1  0  0  0
 17 18  2  0  0  0
 18 19  1  0  0  0
 19 20  2  0  0  0
  2  3  1  0  0  0
  3 21  1  0  0  0
 21 22  1  0  0  0
 22 23  2  0  0  0
 22 24  1  0  0  0
 24 25  2  0  0  0
 25 26  1  0  0  0
 26 27  2  0  0  0
 27 28  1  0  0  0
 28 29  2  0  0  0
 29 30  1  0  0  0
 30 31  2  0  0  0
 30 32  1  0  0  0
 32 33  1  0  0  0
 33 34  1  0  0  0
  3  4  1  0  0  0
 31 26  1  0  0  0
 34 29  1  0  0  0
  1  2  1  0  0  0
  1  4  1  0  0  0
 11 13  1  0  0  0
M  END
>  <minimizedAffinity>
-9.55634

>  <minimizedRMSD>
1.65988

>  <molecular weight>
445.343

$$$$



 29 32  0  0  0  0  0  0  0  0999 V2000
    3.5011   -8.4923   46.4614 C   0  0  0  0  0  0  0  0  0  0  0  0
    4.5563   -7.2168   46.0101 S   0  0  0  0  0  0  0  0  0  0  0  0
    3.7727   -8.9566   47.6630 N   0  0  0  0  0  0  0  0  0  0  0  0
    4.8616   -8.3772   48.2396 N   0  0  0  0  0  0  0  0  0  0  0  0
    5.3730   -7.4525   47.4913 C   0  0  0  0  0  0  0  0  0  0  0  0
    2.4906   -8.9705   45.6209 N   0  0  0  0  0  0  0  0  0  0  0  0
    2.1399  -10.4300   45.7463 C   0  0  0  0  0  0  0  0  0  0  0  0
    0.7560  -10.8053   45.1944 C   0  0  0  0  0  0  0  0  0  0  0  0
   -0.3889  -10.0010   45.8439 C   0  0  0  0  0  0  0  0  0  0  0  0
   -0.7126   -8.6472   45.1613 C   0  0  0  0  0  0  0  0  0  0  0  0
    0.4557   -7.6353   45.2463 C   0  0  0  0  0  0  0  0  0  0  0  0
    1.7756   -8.1372   44.6489 C   0  0  0  0  0  0  0  0  0  0  0  0
   -1.2324   -8.8287   43.6870 C   0  0  0  0  0  0  0  0  0  0  0  0
   -2.5845   -8.2948   43.6821 N   0  0  0  0  0  0  0  0  0  0  0  0
   -2.8736   -7.8752   44.9911 C   0  0  0  0  0  0  0  0  0  0  0  0
   -3.9761   -7.3765   45.3359 O   0  0  0  0  0  0  0  0  0  0  0  0
   -1.8218   -8.0705   45.8530 O   0  0  0  0  0  0  0  0  0  0  0  0
   -3.1863   -8.2378   42.9050 H   0  0  0  0  0  0  0  0  0  0  0  0
    8.0130   -7.7755   46.4186 O   0  0  0  0  0  0  0  0  0  0  0  0
    6.4919   -6.7416   47.7253 N   0  0  0  0  0  0  0  0  0  0  0  0
    7.7465   -6.9060   47.2125 C   0  0  0  0  0  0  0  0  0  0  0  0
    6.3908   -5.9944   48.3583 H   0  0  0  0  0  0  0  0  0  0  0  0
    8.7605   -5.8958   47.7236 C   0  0  0  0  0  0  0  0  0  0  0  0
    8.3523   -4.4605   47.4830 C   0  0  0  0  0  0  0  0  0  0  0  0
    7.0273   -4.0574   47.6889 C   0  0  0  0  0  0  0  0  0  0  0  0
    6.6357   -2.7361   47.4624 C   0  0  0  0  0  0  0  0  0  0  0  0
    7.5666   -1.7987   47.0137 C   0  0  0  0  0  0  0  0  0  0  0  0
    8.8895   -2.1887   46.7989 C   0  0  0  0  0  0  0  0  0  0  0  0
    9.2769   -3.5092   47.0335 C   0  0  0  0  0  0  0  0  0  0  0  0
  6  1  1  0  0  0
 19 21  2  0  0  0
  2  1  1  0  0  0
  2  5  1  0  0  0
  3  4  1  0  0  0
  3  1  2  0  0  0
  4  5  2  0  0  0
 20 21  1  0  0  0
 20  5  1  0  0  0
 21 23  1  0  0  0
 23 24  1  0  0  0
 24 25  2  0  0  0
 24 29  1  0  0  0
 25 26  1  0  0  0
 26 27  2  0  0  0
 27 28  1  0  0  0
 28 29  2  0  0  0
  7  8  1  0  0  0
  8  9  1  0  0  0
  9 10  1  0  0  0
 10 11  1  0  0  0
 11 12  1  0  0  0
 10 13  1  0  0  0
 13 14  1  0  0  0
 14 15  1  0  0  0
 15 16  2  0  0  0
 15 17  1  0  0  0
 17 10  1  0  0  0
  6  7  1  0  0  0
  6 12  1  0  0  0
 20 22  1  0  0  0
 14 18  1  0  0  0
M  END
>  <minimizedAffinity>
-9.55002

>  <minimizedRMSD>
1.18144

>  <molecular weight>
368.305

$$$$



 24 26  0  0  0  0  0  0  0  0999 V2000
    3.5752   -8.9928   46.1920 C   0  0  0  0  0  0  0  0  0  0  0  0
    4.4708   -7.6103   45.7118 S   0  0  0  0  0  0  0  0  0  0  0  0
    3.7719   -9.2937   47.4584 N   0  0  0  0  0  0  0  0  0  0  0  0
    4.6861   -8.4946   48.0744 N   0  0  0  0  0  0  0  0  0  0  0  0
    5.1355   -7.5723   47.2843 C   0  0  0  0  0  0  0  0  0  0  0  0
    7.8999   -7.5586   46.5210 O   0  0  0  0  0  0  0  0  0  0  0  0
    6.0991   -6.6707   47.5502 N   0  0  0  0  0  0  0  0  0  0  0  0
    7.4148   -6.6752   47.1857 C   0  0  0  0  0  0  0  0  0  0  0  0
    5.8135   -5.8953   48.0854 H   0  0  0  0  0  0  0  0  0  0  0  0
    8.1980   -5.4713   47.6827 C   0  0  0  0  0  0  0  0  0  0  0  0
    7.5692   -4.1490   47.3079 C   0  0  0  0  0  0  0  0  0  0  0  0
    6.7835   -4.0406   46.1540 C   0  0  0  0  0  0  0  0  0  0  0  0
    6.2036   -2.8227   45.7924 C   0  0  0  0  0  0  0  0  0  0  0  0
    6.4126   -1.6888   46.5781 C   0  0  0  0  0  0  0  0  0  0  0  0
    7.1985   -1.7817   47.7279 C   0  0  0  0  0  0  0  0  0  0  0  0
    7.7701   -3.0033   48.0883 C   0  0  0  0  0  0  0  0  0  0  0  0
    2.7534   -9.7043   45.3117 N   0  0  0  0  0  0  0  0  0  0  0  0
    3.2024  -10.3710   44.7431 H   0  0  0  0  0  0  0  0  0  0  0  0
    1.3796   -9.5832   45.1434 C   0  0  0  0  0  0  0  0  0  0  0  0
    0.5477  -10.6294   45.5625 C   0  0  0  0  0  0  0  0  0  0  0  0
   -0.8388  -10.5373   45.4048 C   0  0  0  0  0  0  0  0  0  0  0  0
   -1.4041   -9.3912   44.8391 C   0  0  0  0  0  0  0  0  0  0  0  0
   -0.5840   -8.3328   44.4385 C   0  0  0  0  0  0  0  0  0  0  0  0
    0.8029   -8.4228   44.5946 C   0  0  0  0  0  0  0  0  0  0  0  0
 17  1  1  0  0  0
  6  8  2  0  0  0
  2  1  1  0  0  0
  2  5  1  0  0  0
  3  4  1  0  0  0
  3  1  2  0  0  0
  4  5  2  0  0  0
  7  8  1  0  0  0
  7  5  1  0  0  0
  8 10  1  0  0  0
 10 11  1  0  0  0
 11 12  2  0  0  0
 11 16  1  0  0  0
 12 13  1  0  0  0
 13 14  2  0  0  0
 14 15  1  0  0  0
 15 16  2  0  0  0
 19 20  2  0  0  0
 20 21  1  0  0  0
 21 22  2  0  0  0
 22 23  1  0  0  0
 23 24  2  0  0  0
 24 19  1  0  0  0
 17 19  1  0  0  0
 17 18  1  0  0  0
  7  9  1  0  0  0
M  END
>  <minimizedAffinity>
-9.44131

>  <minimizedRMSD>
1.82275

>  <molecular weight>
298.278

$$$$



 40 46  0  0  0  0  0  0  0  0999 V2000
    6.0042   -6.6066   46.9522 C   0  0  0  0  0  0  0  0  0  0  0  0
    4.8515   -6.5843   45.6924 S   0  0  0  0  0  0  0  0  0  0  0  0
    4.5808   -8.1254   47.6734 N   0  0  0  0  0  0  0  0  0  0  0  0
    5.7377   -7.4451   47.9023 N   0  0  0  0  0  0  0  0  0  0  0  0
    4.0089   -7.8245   46.5265 C   0  0  0  0  0  0  0  0  0  0  0  0
    1.1293  -10.2778   46.0362 C   0  0  0  0  0  0  0  0  0  0  0  0
    2.8602   -8.4354   46.0128 N   0  0  0  0  0  0  0  0  0  0  0  0
    0.1235   -9.1365   45.8016 C   0  0  0  0  0  0  0  0  0  0  0  0
    0.7075   -8.2396   44.6959 C   0  0  0  0  0  0  0  0  0  0  0  0
    1.9927   -7.5615   45.1931 C   0  0  0  0  0  0  0  0  0  0  0  0
    2.4468   -9.7287   46.5983 C   0  0  0  0  0  0  0  0  0  0  0  0
   -1.2768   -9.6646   45.4433 C   0  0  0  0  0  0  0  0  0  0  0  0
   -1.5874   -8.7454   43.1761 N   0  0  0  0  0  0  0  0  0  0  0  0
   -2.4330   -7.9786   42.4792 N   0  0  0  0  0  0  0  0  0  0  0  0
   -2.0197   -8.8453   44.4214 C   0  0  0  0  0  0  0  0  0  0  0  0
   -3.1743   -8.1398   44.5627 N   0  0  0  0  0  0  0  0  0  0  0  0
   -5.4045   -6.5580   44.0711 N   0  0  0  0  0  0  0  0  0  0  0  0
   -3.3879   -7.6188   43.3206 C   0  0  0  0  0  0  0  0  0  0  0  0
   -4.5613   -6.8013   43.1098 C   0  0  0  0  0  0  0  0  0  0  0  0
   -5.1422   -7.1153   45.3267 C   0  0  0  0  0  0  0  0  0  0  0  0
   -4.0600   -7.8973   45.6116 C   0  0  0  0  0  0  0  0  0  0  0  0
    7.1023   -5.8381   46.8286 N   0  0  0  0  0  0  0  0  0  0  0  0
    6.6356   -4.4960   46.4685 O   0  0  0  0  0  0  0  0  0  0  0  0
    7.8795   -3.0674   46.2121 O   0  0  0  0  0  0  0  0  0  0  0  0
    5.0105   -2.2292   44.4624 N   0  0  0  0  0  0  0  0  0  0  0  0
    6.1537   -1.5261   44.2299 C   0  0  0  0  0  0  0  0  0  0  0  0
    6.0832   -0.2319   44.6338 N   0  0  0  0  0  0  0  0  0  0  0  0
    4.8441   -0.1381   45.1430 C   0  0  0  0  0  0  0  0  0  0  0  0
    4.2525    0.9882   45.7091 C   0  0  0  0  0  0  0  0  0  0  0  0
    2.9378    0.8662   46.1917 C   0  0  0  0  0  0  0  0  0  0  0  0
    2.2557   -0.3654   46.0976 C   0  0  0  0  0  0  0  0  0  0  0  0
    2.8799   -1.4862   45.5195 C   0  0  0  0  0  0  0  0  0  0  0  0
    4.1886   -1.3341   45.0455 C   0  0  0  0  0  0  0  0  0  0  0  0
    7.3799   -2.0826   43.5654 C   0  0  0  0  0  0  0  0  0  0  0  0
    7.1324   -2.2872   42.1220 N   0  0  0  0  0  0  0  0  0  0  0  0
    8.3856   -2.2876   41.3429 C   0  0  0  0  0  0  0  0  0  0  0  0
    9.0069   -0.8730   41.2528 C   0  0  0  0  0  0  0  0  0  0  0  0
    8.0936    0.1610   41.5793 O   0  0  0  0  0  0  0  0  0  0  0  0
    6.8501   -0.0747   40.9559 C   0  0  0  0  0  0  0  0  0  0  0  0
    6.1623   -1.3125   41.5672 C   0  0  0  0  0  0  0  0  0  0  0  0
  6  8  1  0  0  0
  6 11  1  0  0  0
  7 11  1  0  0  0
  7  5  1  0  0  0
  7 10  1  0  0  0
  2  5  1  0  0  0
  2  1  1  0  0  0
  8  9  1  0  0  0
  8 12  1  0  0  0
  3  4  1  0  0  0
  3  5  2  0  0  0
  9 10  1  0  0  0
  4  1  2  0  0  0
 22  1  1  0  0  0
 13 14  1  0  0  0
 13 15  2  0  0  0
 12 15  1  0  0  0
 14 18  2  0  0  0
 15 16  1  0  0  0
 16 21  1  0  0  0
 16 18  1  0  0  0
 17 20  1  0  0  0
 17 19  2  0  0  0
 18 19  1  0  0  0
 20 21  2  0  0  0
 25 26  1  0  0  0
 26 34  1  0  0  0
 34 35  1  0  0  0
 35 36  1  0  0  0
 36 37  1  0  0  0
 37 38  1  0  0  0
 38 39  1  0  0  0
 39 40  1  0  0  0
 26 27  2  0  0  0
 27 28  1  0  0  0
 28 29  2  0  0  0
 29 30  1  0  0  0
 30 31  2  0  0  0
 31 32  1  0  0  0
 32 33  2  0  0  0
 33 25  1  0  0  0
 40 35  1  0  0  0
 33 28  1  0  0  0
 22 23  2  0  0  0
 22 24  2  0  0  0
 22 25  1  0  0  0
M  END
>  <minimizedAffinity>
-9.43676

>  <minimizedRMSD>
4.89568

>  <molecular weight>
534.404

$$$$



 24 26  0  0  0  0  0  0  0  0999 V2000
    3.5740   -8.9849   46.2007 C   0  0  0  0  0  0  0  0  0  0  0  0
    4.4671   -7.6013   45.7187 S   0  0  0  0  0  0  0  0  0  0  0  0
    3.7780   -9.2889   47.4652 N   0  0  0  0  0  0  0  0  0  0  0  0
    4.6959   -8.4915   48.0779 N   0  0  0  0  0  0  0  0  0  0  0  0
    5.1409   -7.5673   47.2875 C   0  0  0  0  0  0  0  0  0  0  0  0
    7.9042   -7.5593   46.5202 O   0  0  0  0  0  0  0  0  0  0  0  0
    6.1062   -6.6666   47.5500 N   0  0  0  0  0  0  0  0  0  0  0  0
    7.4214   -6.6737   47.1836 C   0  0  0  0  0  0  0  0  0  0  0  0
    5.8225   -5.8896   48.0839 H   0  0  0  0  0  0  0  0  0  0  0  0
    8.2071   -5.4699   47.6769 C   0  0  0  0  0  0  0  0  0  0  0  0
    7.5759   -4.1476   47.3062 C   0  0  0  0  0  0  0  0  0  0  0  0
    6.7896   -4.0371   46.1529 C   0  0  0  0  0  0  0  0  0  0  0  0
    6.2075   -2.8191   45.7951 C   0  0  0  0  0  0  0  0  0  0  0  0
    6.4150   -1.6872   46.5840 C   0  0  0  0  0  0  0  0  0  0  0  0
    7.2015   -1.7822   47.7332 C   0  0  0  0  0  0  0  0  0  0  0  0
    7.7753   -3.0038   48.0898 C   0  0  0  0  0  0  0  0  0  0  0  0
    2.7471   -9.6941   45.3234 N   0  0  0  0  0  0  0  0  0  0  0  0
    3.1950  -10.3632   44.7570 H   0  0  0  0  0  0  0  0  0  0  0  0
    1.3736   -9.5741   45.1498 C   0  0  0  0  0  0  0  0  0  0  0  0
    0.7923   -8.4140   44.6014 C   0  0  0  0  0  0  0  0  0  0  0  0
   -0.5943   -8.3332   44.4314 C   0  0  0  0  0  0  0  0  0  0  0  0
   -1.4104   -9.3961   44.8260 C   0  0  0  0  0  0  0  0  0  0  0  0
   -0.8421  -10.5386   45.3986 C   0  0  0  0  0  0  0  0  0  0  0  0
    0.5433  -10.6247   45.5635 C   0  0  0  0  0  0  0  0  0  0  0  0
 17  1  1  0  0  0
  6  8  2  0  0  0
  2  1  1  0  0  0
  2  5  1  0  0  0
  3  4  1  0  0  0
  3  1  2  0  0  0
  4  5  2  0  0  0
  7  8  1  0  0  0
  7  5  1  0  0  0
  8 10  1  0  0  0
 10 11  1  0  0  0
 11 12  2  0  0  0
 11 16  1  0  0  0
 12 13  1  0  0  0
 13 14  2  0  0  0
 14 15  1  0  0  0
 15 16  2  0  0  0
 19 20  2  0  0  0
 20 21  1  0  0  0
 21 22  2  0  0  0
 22 23  1  0  0  0
 23 24  2  0  0  0
 24 19  1  0  0  0
 17 19  1  0  0  0
 17 18  1  0  0  0
  7  9  1  0  0  0
M  END
>  <minimizedAffinity>
-9.42334

>  <minimizedRMSD>
1.80448

>  <molecular weight>
298.278

$$$$



 34 38  0  0  0  0  0  0  0  0999 V2000
    2.7503   -9.0352   45.8459 N   0  0  0  0  0  0  0  0  0  0  0  0
    1.4535   -9.7231   46.1061 C   0  0  0  0  0  0  0  0  0  0  0  0
    1.0470   -9.8378   44.6713 C   0  0  0  0  0  0  0  0  0  0  0  0
    2.3550   -9.1577   44.4273 C   0  0  0  0  0  0  0  0  0  0  0  0
    3.7883   -8.5077   46.6210 C   0  0  0  0  0  0  0  0  0  0  0  0
    4.7854   -7.2195   46.0822 S   0  0  0  0  0  0  0  0  0  0  0  0
    4.1315   -8.9303   47.8196 N   0  0  0  0  0  0  0  0  0  0  0  0
    5.2319   -8.3073   48.3244 N   0  0  0  0  0  0  0  0  0  0  0  0
    5.6807   -7.3918   47.5261 C   0  0  0  0  0  0  0  0  0  0  0  0
    8.3084   -7.7557   46.4365 O   0  0  0  0  0  0  0  0  0  0  0  0
    6.7904   -6.6464   47.6838 N   0  0  0  0  0  0  0  0  0  0  0  0
    8.0394   -6.8304   47.1639 C   0  0  0  0  0  0  0  0  0  0  0  0
    6.6863   -5.8532   48.2576 H   0  0  0  0  0  0  0  0  0  0  0  0
    9.0434   -5.7665   47.5759 C   0  0  0  0  0  0  0  0  0  0  0  0
    8.4978   -4.3597   47.4890 C   0  0  0  0  0  0  0  0  0  0  0  0
    7.3081   -4.0201   48.1447 C   0  0  0  0  0  0  0  0  0  0  0  0
    6.7893   -2.7259   48.0655 C   0  0  0  0  0  0  0  0  0  0  0  0
    7.4509   -1.7526   47.3162 C   0  0  0  0  0  0  0  0  0  0  0  0
    8.6348   -2.0794   46.6529 C   0  0  0  0  0  0  0  0  0  0  0  0
    9.1525   -3.3729   46.7410 C   0  0  0  0  0  0  0  0  0  0  0  0
   -0.0567   -8.9973   44.3426 O   0  0  0  0  0  0  0  0  0  0  0  0
   -1.3058   -9.1104   44.9629 C   0  0  0  0  0  0  0  0  0  0  0  0
   -1.5552  -10.0864   45.7208 O   0  0  0  0  0  0  0  0  0  0  0  0
   -2.3407   -8.0887   44.7453 C   0  0  0  0  0  0  0  0  0  0  0  0
   -3.2516   -8.2042   43.7696 C   0  0  0  0  0  0  0  0  0  0  0  0
   -4.3153   -7.2027   43.5185 C   0  0  0  0  0  0  0  0  0  0  0  0
   -3.9408   -5.9250   43.0269 C   0  0  0  0  0  0  0  0  0  0  0  0
   -4.9093   -4.9357   42.7813 C   0  0  0  0  0  0  0  0  0  0  0  0
   -6.2371   -5.2464   43.0492 C   0  0  0  0  0  0  0  0  0  0  0  0
   -6.6075   -6.4579   43.5330 C   0  0  0  0  0  0  0  0  0  0  0  0
   -5.6827   -7.4669   43.7857 C   0  0  0  0  0  0  0  0  0  0  0  0
   -7.9769   -6.4813   43.7144 O   0  0  0  0  0  0  0  0  0  0  0  0
   -8.4987   -5.2063   43.3138 C   0  0  0  0  0  0  0  0  0  0  0  0
   -7.3546   -4.4492   42.8960 O   0  0  0  0  0  0  0  0  0  0  0  0
  1  5  1  0  0  0
 10 12  2  0  0  0
  6  5  1  0  0  0
  6  9  1  0  0  0
  7  8  1  0  0  0
  7  5  2  0  0  0
  8  9  2  0  0  0
 11 12  1  0  0  0
 11  9  1  0  0  0
 12 14  1  0  0  0
 14 15  1  0  0  0
 15 16  2  0  0  0
 15 20  1  0  0  0
 16 17  1  0  0  0
 17 18  2  0  0  0
 18 19  1  0  0  0
 19 20  2  0  0  0
  2  3  1  0  0  0
  3 21  1  0  0  0
 21 22  1  0  0  0
 22 23  2  0  0  0
 22 24  1  0  0  0
 24 25  2  0  0  0
 25 26  1  0  0  0
 26 27  2  0  0  0
 27 28  1  0  0  0
 28 29  2  0  0  0
 29 30  1  0  0  0
 30 31  2  0  0  0
 30 32  1  0  0  0
 32 33  1  0  0  0
 33 34  1  0  0  0
  3  4  1  0  0  0
 31 26  1  0  0  0
 34 29  1  0  0  0
  1  2  1  0  0  0
  1  4  1  0  0  0
 11 13  1  0  0  0
M  END
>  <minimizedAffinity>
-9.40401

>  <minimizedRMSD>
1.46307

>  <molecular weight>
445.343

$$$$



 32 36  0  0  0  0  0  0  0  0999 V2000
    3.6383   -8.0784   46.0475 C   0  0  0  0  0  0  0  0  0  0  0  0
    4.8281   -6.8879   45.7143 S   0  0  0  0  0  0  0  0  0  0  0  0
    3.7282   -8.5360   47.2786 N   0  0  0  0  0  0  0  0  0  0  0  0
    4.7771   -8.0214   47.9777 N   0  0  0  0  0  0  0  0  0  0  0  0
    5.4399   -7.1493   47.2871 C   0  0  0  0  0  0  0  0  0  0  0  0
    2.7062   -8.5028   45.0949 N   0  0  0  0  0  0  0  0  0  0  0  0
    2.6215   -9.9655   44.7807 C   0  0  0  0  0  0  0  0  0  0  0  0
    1.7735  -10.7211   45.8187 C   0  0  0  0  0  0  0  0  0  0  0  0
    0.7510   -9.8665   46.6048 C   0  0  0  0  0  0  0  0  0  0  0  0
   -0.1290   -9.0117   45.7762 N   0  0  0  0  0  0  0  0  0  0  0  0
    0.4152   -7.6656   45.4784 C   0  0  0  0  0  0  0  0  0  0  0  0
    1.6354   -7.6700   44.5467 C   0  0  0  0  0  0  0  0  0  0  0  0
   -0.7891   -9.6995   44.6493 C   0  0  0  0  0  0  0  0  0  0  0  0
   -1.8528   -8.8310   44.0584 C   0  0  0  0  0  0  0  0  0  0  0  0
   -2.8782   -8.3128   44.7614 N   0  0  0  0  0  0  0  0  0  0  0  0
   -3.5340   -7.6313   43.7992 C   0  0  0  0  0  0  0  0  0  0  0  0
   -2.9329   -7.7181   42.5968 N   0  0  0  0  0  0  0  0  0  0  0  0
   -1.8984   -8.4751   42.7985 O   0  0  0  0  0  0  0  0  0  0  0  0
   -4.7551   -6.8056   44.0561 C   0  0  0  0  0  0  0  0  0  0  0  0
   -5.6015   -7.2763   45.2288 C   0  0  0  0  0  0  0  0  0  0  0  0
   -6.0701   -7.5277   43.8060 C   0  0  0  0  0  0  0  0  0  0  0  0
    8.1703   -7.7420   46.6405 O   0  0  0  0  0  0  0  0  0  0  0  0
    6.5694   -6.5124   47.6484 N   0  0  0  0  0  0  0  0  0  0  0  0
    7.8665   -6.8051   47.3388 C   0  0  0  0  0  0  0  0  0  0  0  0
    6.4416   -5.7204   48.2190 H   0  0  0  0  0  0  0  0  0  0  0  0
    8.8780   -5.8446   47.9422 C   0  0  0  0  0  0  0  0  0  0  0  0
    8.5563   -4.3911   47.6808 C   0  0  0  0  0  0  0  0  0  0  0  0
    7.3430   -3.8451   48.1172 C   0  0  0  0  0  0  0  0  0  0  0  0
    7.0303   -2.5057   47.8749 C   0  0  0  0  0  0  0  0  0  0  0  0
    7.9268   -1.6938   47.1794 C   0  0  0  0  0  0  0  0  0  0  0  0
    9.1374   -2.2270   46.7338 C   0  0  0  0  0  0  0  0  0  0  0  0
    9.4477   -3.5648   46.9847 C   0  0  0  0  0  0  0  0  0  0  0  0
  6  1  1  0  0  0
 22 24  2  0  0  0
  2  1  1  0  0  0
  2  5  1  0  0  0
  3  4  1  0  0  0
  3  1  2  0  0  0
  4  5  2  0  0  0
 23 24  1  0  0  0
 23  5  1  0  0  0
 24 26  1  0  0  0
 26 27  1  0  0  0
 27 28  2  0  0  0
 27 32  1  0  0  0
 28 29  1  0  0  0
 29 30  2  0  0  0
 30 31  1  0  0  0
 31 32  2  0  0  0
  7  8  1  0  0  0
  8  9  1  0  0  0
  9 10  1  0  0  0
 10 13  1  0  0  0
 13 14  1  0  0  0
 14 15  2  0  0  0
 15 16  1  0  0  0
 16 19  1  0  0  0
 19 20  1  0  0  0
 20 21  1  0  0  0
 16 17  2  0  0  0
 17 18  1  0  0  0
 10 11  1  0  0  0
 11 12  1  0  0  0
 18 14  1  0  0  0
 21 19  1  0  0  0
  6  7  1  0  0  0
  6 12  1  0  0  0
 23 25  1  0  0  0
M  END
>  <minimizedAffinity>
-9.39961

>  <minimizedRMSD>
1.43246

>  <molecular weight>
415.343

$$$$



 31 34  0  0  0  0  0  0  0  0999 V2000
    3.0865   -8.7025   46.5145 C   0  0  0  0  0  0  0  0  0  0  0  0
    3.8854   -7.2430   46.0955 S   0  0  0  0  0  0  0  0  0  0  0  0
    3.6172   -9.2687   47.5779 N   0  0  0  0  0  0  0  0  0  0  0  0
    4.7120   -8.6156   48.0559 N   0  0  0  0  0  0  0  0  0  0  0  0
    4.9700   -7.5414   47.3804 C   0  0  0  0  0  0  0  0  0  0  0  0
    2.0100   -9.2124   45.7812 N   0  0  0  0  0  0  0  0  0  0  0  0
    1.3814   -9.0530   44.4522 C   0  0  0  0  0  0  0  0  0  0  0  0
    0.2752  -10.0406   44.6670 C   0  0  0  0  0  0  0  0  0  0  0  0
    0.9249  -10.2109   46.0070 C   0  0  0  0  0  0  0  0  0  0  0  0
   -1.1093   -9.4395   44.7041 C   0  0  0  0  0  0  0  0  0  0  0  0
   -1.7523   -9.4781   45.7877 O   0  0  0  0  0  0  0  0  0  0  0  0
   -1.7084   -8.8604   43.5302 N   0  0  0  0  0  0  0  0  0  0  0  0
   -1.2459   -8.9679   42.6678 H   0  0  0  0  0  0  0  0  0  0  0  0
   -2.9468   -8.1339   43.5541 C   0  0  0  0  0  0  0  0  0  0  0  0
   -4.0787   -8.6877   42.9364 C   0  0  0  0  0  0  0  0  0  0  0  0
   -5.2925   -7.9941   42.9317 C   0  0  0  0  0  0  0  0  0  0  0  0
   -5.3809   -6.7346   43.5293 C   0  0  0  0  0  0  0  0  0  0  0  0
   -4.2531   -6.1621   44.1229 C   0  0  0  0  0  0  0  0  0  0  0  0
   -3.0356   -6.8518   44.1315 C   0  0  0  0  0  0  0  0  0  0  0  0
   -1.9398   -6.2476   44.6561 F   0  0  0  0  0  0  0  0  0  0  0  0
    7.6408   -7.7409   46.3548 O   0  0  0  0  0  0  0  0  0  0  0  0
    6.0186   -6.7122   47.5383 N   0  0  0  0  0  0  0  0  0  0  0  0
    7.2889   -6.8181   47.0492 C   0  0  0  0  0  0  0  0  0  0  0  0
    5.8441   -5.9132   48.0863 H   0  0  0  0  0  0  0  0  0  0  0  0
    8.2031   -5.6721   47.4498 C   0  0  0  0  0  0  0  0  0  0  0  0
    7.6067   -4.3082   47.1885 C   0  0  0  0  0  0  0  0  0  0  0  0
    7.8500   -3.2483   48.0706 C   0  0  0  0  0  0  0  0  0  0  0  0
    7.2982   -1.9855   47.8447 C   0  0  0  0  0  0  0  0  0  0  0  0
    6.4822   -1.7681   46.7341 C   0  0  0  0  0  0  0  0  0  0  0  0
    6.2268   -2.8175   45.8499 C   0  0  0  0  0  0  0  0  0  0  0  0
    6.7866   -4.0761   46.0769 C   0  0  0  0  0  0  0  0  0  0  0  0
  6  1  1  0  0  0
 21 23  2  0  0  0
  2  1  1  0  0  0
  2  5  1  0  0  0
  3  4  1  0  0  0
  3  1  2  0  0  0
  4  5  2  0  0  0
 22 23  1  0  0  0
 22  5  1  0  0  0
 23 25  1  0  0  0
 25 26  1  0  0  0
 26 27  2  0  0  0
 26 31  1  0  0  0
 27 28  1  0  0  0
 28 29  2  0  0  0
 29 30  1  0  0  0
 30 31  2  0  0  0
  7  8  1  0  0  0
  8 10  1  0  0  0
 10 11  2  0  0  0
 10 12  1  0  0  0
 12 14  1  0  0  0
 14 15  2  0  0  0
 15 16  1  0  0  0
 16 17  2  0  0  0
 17 18  1  0  0  0
 18 19  2  0  0  0
 19 20  1  0  0  0
  8  9  1  0  0  0
 19 14  1  0  0  0
  6  7  1  0  0  0
  6  9  1  0  0  0
 22 24  1  0  0  0
 12 13  1  0  0  0
M  END
>  <minimizedAffinity>
-9.36354

>  <minimizedRMSD>
2.05851

>  <molecular weight>
395.326

$$$$



 30 33  0  0  0  0  0  0  0  0999 V2000
    3.7806   -8.4431   46.5774 C   0  0  0  0  0  0  0  0  0  0  0  0
    4.7972   -7.1593   46.0651 S   0  0  0  0  0  0  0  0  0  0  0  0
    4.1026   -8.8800   47.7768 N   0  0  0  0  0  0  0  0  0  0  0  0
    5.2012   -8.2720   48.3032 N   0  0  0  0  0  0  0  0  0  0  0  0
    5.6699   -7.3533   47.5201 C   0  0  0  0  0  0  0  0  0  0  0  0
    2.7492   -8.9538   45.7825 N   0  0  0  0  0  0  0  0  0  0  0  0
    2.6903   -9.1715   44.4497 C   0  0  0  0  0  0  0  0  0  0  0  0
    1.4890   -9.6467   44.0532 N   0  0  0  0  0  0  0  0  0  0  0  0
    0.7539   -9.7559   45.1504 N   0  0  0  0  0  0  0  0  0  0  0  0
    1.4941   -9.3269   46.1871 C   0  0  0  0  0  0  0  0  0  0  0  0
    1.0802   -9.2576   47.3759 O   0  0  0  0  0  0  0  0  0  0  0  0
   -0.6484  -10.1614   45.1669 C   0  0  0  0  0  0  0  0  0  0  0  0
   -1.5130   -9.0548   44.6292 C   0  0  0  0  0  0  0  0  0  0  0  0
   -1.5558   -7.8033   45.2715 C   0  0  0  0  0  0  0  0  0  0  0  0
   -2.3541   -6.7769   44.7569 C   0  0  0  0  0  0  0  0  0  0  0  0
   -3.1120   -6.9908   43.5987 C   0  0  0  0  0  0  0  0  0  0  0  0
   -3.8788   -5.9925   43.0981 F   0  0  0  0  0  0  0  0  0  0  0  0
   -3.0727   -8.2327   42.9538 C   0  0  0  0  0  0  0  0  0  0  0  0
   -2.2741   -9.2613   43.4649 C   0  0  0  0  0  0  0  0  0  0  0  0
    8.3110   -7.7348   46.4697 O   0  0  0  0  0  0  0  0  0  0  0  0
    6.7840   -6.6199   47.7008 N   0  0  0  0  0  0  0  0  0  0  0  0
    8.0393   -6.8122   47.1994 C   0  0  0  0  0  0  0  0  0  0  0  0
    6.6784   -5.8298   48.2786 H   0  0  0  0  0  0  0  0  0  0  0  0
    9.0467   -5.7609   47.6350 C   0  0  0  0  0  0  0  0  0  0  0  0
    8.5266   -4.3465   47.5206 C   0  0  0  0  0  0  0  0  0  0  0  0
    7.3219   -3.9833   48.1351 C   0  0  0  0  0  0  0  0  0  0  0  0
    6.8265   -2.6819   48.0301 C   0  0  0  0  0  0  0  0  0  0  0  0
    7.5273   -1.7247   47.2957 C   0  0  0  0  0  0  0  0  0  0  0  0
    8.7266   -2.0749   46.6732 C   0  0  0  0  0  0  0  0  0  0  0  0
    9.2206   -3.3756   46.7872 C   0  0  0  0  0  0  0  0  0  0  0  0
  6  1  1  0  0  0
 20 22  2  0  0  0
  2  1  1  0  0  0
  2  5  1  0  0  0
  3  4  1  0  0  0
  3  1  2  0  0  0
  4  5  2  0  0  0
 21 22  1  0  0  0
 21  5  1  0  0  0
 22 24  1  0  0  0
 24 25  1  0  0  0
 25 26  2  0  0  0
 25 30  1  0  0  0
 26 27  1  0  0  0
 27 28  2  0  0  0
 28 29  1  0  0  0
 29 30  2  0  0  0
  7  8  2  0  0  0
  8  9  1  0  0  0
  9 12  1  0  0  0
 12 13  1  0  0  0
 13 14  2  0  0  0
 14 15  1  0  0  0
 15 16  2  0  0  0
 16 17  1  0  0  0
 16 18  1  0  0  0
 18 19  2  0  0  0
  9 10  1  0  0  0
 10 11  2  0  0  0
 19 13  1  0  0  0
  6  7  1  0  0  0
  6 10  1  0  0  0
 21 23  1  0  0  0
M  END
>  <minimizedAffinity>
-9.35825

>  <minimizedRMSD>
1.99488

>  <molecular weight>
396.314

$$$$



 30 33  0  0  0  0  0  0  0  0999 V2000
    3.7806   -8.4401   46.5765 C   0  0  0  0  0  0  0  0  0  0  0  0
    4.7991   -7.1547   46.0721 S   0  0  0  0  0  0  0  0  0  0  0  0
    4.1018   -8.8846   47.7732 N   0  0  0  0  0  0  0  0  0  0  0  0
    5.2012   -8.2814   48.3035 N   0  0  0  0  0  0  0  0  0  0  0  0
    5.6714   -7.3587   47.5260 C   0  0  0  0  0  0  0  0  0  0  0  0
    2.7486   -8.9445   45.7784 N   0  0  0  0  0  0  0  0  0  0  0  0
    2.6999   -9.1905   44.4495 C   0  0  0  0  0  0  0  0  0  0  0  0
    1.4958   -9.6612   44.0524 N   0  0  0  0  0  0  0  0  0  0  0  0
    0.7476   -9.7330   45.1427 N   0  0  0  0  0  0  0  0  0  0  0  0
    1.4874   -9.2997   46.1785 C   0  0  0  0  0  0  0  0  0  0  0  0
    1.0748   -9.2303   47.3684 O   0  0  0  0  0  0  0  0  0  0  0  0
   -0.6533  -10.1446   45.1535 C   0  0  0  0  0  0  0  0  0  0  0  0
   -1.5206   -9.0417   44.6122 C   0  0  0  0  0  0  0  0  0  0  0  0
   -2.2930   -9.2430   43.4550 C   0  0  0  0  0  0  0  0  0  0  0  0
   -3.0938   -8.2116   42.9556 C   0  0  0  0  0  0  0  0  0  0  0  0
   -3.1271   -6.9726   43.6045 C   0  0  0  0  0  0  0  0  0  0  0  0
   -3.9062   -5.9746   43.1201 F   0  0  0  0  0  0  0  0  0  0  0  0
   -2.3599   -6.7642   44.7552 C   0  0  0  0  0  0  0  0  0  0  0  0
   -1.5593   -7.7938   45.2586 C   0  0  0  0  0  0  0  0  0  0  0  0
    8.3101   -7.7330   46.4670 O   0  0  0  0  0  0  0  0  0  0  0  0
    6.7865   -6.6280   47.7112 N   0  0  0  0  0  0  0  0  0  0  0  0
    8.0406   -6.8169   47.2056 C   0  0  0  0  0  0  0  0  0  0  0  0
    6.6827   -5.8431   48.2963 H   0  0  0  0  0  0  0  0  0  0  0  0
    9.0499   -5.7706   47.6489 C   0  0  0  0  0  0  0  0  0  0  0  0
    8.5389   -4.3534   47.5271 C   0  0  0  0  0  0  0  0  0  0  0  0
    7.3299   -3.9827   48.1282 C   0  0  0  0  0  0  0  0  0  0  0  0
    6.8429   -2.6787   48.0163 C   0  0  0  0  0  0  0  0  0  0  0  0
    7.5567   -1.7264   47.2881 C   0  0  0  0  0  0  0  0  0  0  0  0
    8.7606   -2.0842   46.6789 C   0  0  0  0  0  0  0  0  0  0  0  0
    9.2461   -3.3874   46.7999 C   0  0  0  0  0  0  0  0  0  0  0  0
  6  1  1  0  0  0
 20 22  2  0  0  0
  2  1  1  0  0  0
  2  5  1  0  0  0
  3  4  1  0  0  0
  3  1  2  0  0  0
  4  5  2  0  0  0
 21 22  1  0  0  0
 21  5  1  0  0  0
 22 24  1  0  0  0
 24 25  1  0  0  0
 25 26  2  0  0  0
 25 30  1  0  0  0
 26 27  1  0  0  0
 27 28  2  0  0  0
 28 29  1  0  0  0
 29 30  2  0  0  0
  7  8  2  0  0  0
  8  9  1  0  0  0
  9 12  1  0  0  0
 12 13  1  0  0  0
 13 14  2  0  0  0
 14 15  1  0  0  0
 15 16  2  0  0  0
 16 17  1  0  0  0
 16 18  1  0  0  0
 18 19  2  0  0  0
  9 10  1  0  0  0
 10 11  2  0  0  0
 19 13  1  0  0  0
  6  7  1  0  0  0
  6 10  1  0  0  0
 21 23  1  0  0  0
M  END
>  <minimizedAffinity>
-9.35501

>  <minimizedRMSD>
1.63947

>  <molecular weight>
396.314

$$$$



 30 33  0  0  0  0  0  0  0  0999 V2000
    3.7792   -8.4332   46.5767 C   0  0  0  0  0  0  0  0  0  0  0  0
    4.7984   -7.1467   46.0767 S   0  0  0  0  0  0  0  0  0  0  0  0
    4.1017   -8.8836   47.7709 N   0  0  0  0  0  0  0  0  0  0  0  0
    5.2027   -8.2842   48.3022 N   0  0  0  0  0  0  0  0  0  0  0  0
    5.6727   -7.3586   47.5283 C   0  0  0  0  0  0  0  0  0  0  0  0
    2.7452   -8.9325   45.7780 N   0  0  0  0  0  0  0  0  0  0  0  0
    2.7015   -9.1935   44.4520 C   0  0  0  0  0  0  0  0  0  0  0  0
    1.5004   -9.6708   44.0559 N   0  0  0  0  0  0  0  0  0  0  0  0
    0.7480   -9.7308   45.1447 N   0  0  0  0  0  0  0  0  0  0  0  0
    1.4830   -9.2842   46.1781 C   0  0  0  0  0  0  0  0  0  0  0  0
    1.0646   -9.1982   47.3648 O   0  0  0  0  0  0  0  0  0  0  0  0
   -0.6513  -10.1490   45.1555 C   0  0  0  0  0  0  0  0  0  0  0  0
   -1.5231   -9.0496   44.6118 C   0  0  0  0  0  0  0  0  0  0  0  0
   -1.5725   -7.8040   45.2597 C   0  0  0  0  0  0  0  0  0  0  0  0
   -2.3771   -6.7777   44.7542 C   0  0  0  0  0  0  0  0  0  0  0  0
   -3.1366   -6.9870   43.5994 C   0  0  0  0  0  0  0  0  0  0  0  0
   -3.9169   -5.9913   43.1108 F   0  0  0  0  0  0  0  0  0  0  0  0
   -3.0929   -8.2239   42.9491 C   0  0  0  0  0  0  0  0  0  0  0  0
   -2.2890   -9.2524   43.4512 C   0  0  0  0  0  0  0  0  0  0  0  0
    8.3144   -7.7434   46.4805 O   0  0  0  0  0  0  0  0  0  0  0  0
    6.7891   -6.6300   47.7151 N   0  0  0  0  0  0  0  0  0  0  0  0
    8.0446   -6.8239   47.2150 C   0  0  0  0  0  0  0  0  0  0  0  0
    6.6851   -5.8428   48.2971 H   0  0  0  0  0  0  0  0  0  0  0  0
    9.0549   -5.7787   47.6583 C   0  0  0  0  0  0  0  0  0  0  0  0
    8.5468   -4.3608   47.5329 C   0  0  0  0  0  0  0  0  0  0  0  0
    7.3367   -3.9870   48.1302 C   0  0  0  0  0  0  0  0  0  0  0  0
    6.8524   -2.6823   48.0149 C   0  0  0  0  0  0  0  0  0  0  0  0
    7.5700   -1.7324   47.2872 C   0  0  0  0  0  0  0  0  0  0  0  0
    8.7748   -2.0933   46.6819 C   0  0  0  0  0  0  0  0  0  0  0  0
    9.2577   -3.3973   46.8062 C   0  0  0  0  0  0  0  0  0  0  0  0
  6  1  1  0  0  0
 20 22  2  0  0  0
  2  1  1  0  0  0
  2  5  1  0  0  0
  3  4  1  0  0  0
  3  1  2  0  0  0
  4  5  2  0  0  0
 21 22  1  0  0  0
 21  5  1  0  0  0
 22 24  1  0  0  0
 24 25  1  0  0  0
 25 26  2  0  0  0
 25 30  1  0  0  0
 26 27  1  0  0  0
 27 28  2  0  0  0
 28 29  1  0  0  0
 29 30  2  0  0  0
  7  8  2  0  0  0
  8  9  1  0  0  0
  9 12  1  0  0  0
 12 13  1  0  0  0
 13 14  2  0  0  0
 14 15  1  0  0  0
 15 16  2  0  0  0
 16 17  1  0  0  0
 16 18  1  0  0  0
 18 19  2  0  0  0
  9 10  1  0  0  0
 10 11  2  0  0  0
 19 13  1  0  0  0
  6  7  1  0  0  0
  6 10  1  0  0  0
 21 23  1  0  0  0
M  END
>  <minimizedAffinity>
-9.3504

>  <minimizedRMSD>
1.56629

>  <molecular weight>
396.314

$$$$



 34 36  0  0  0  0  0  0  0  0999 V2000
    2.5341   -8.6178   45.4356 N   0  0  0  0  0  0  0  0  0  0  0  0
    2.3702  -10.0758   45.1061 C   0  0  0  0  0  0  0  0  0  0  0  0
    1.2379  -10.6962   45.9283 C   0  0  0  0  0  0  0  0  0  0  0  0
   -0.1456  -10.3874   45.3481 C   0  0  0  0  0  0  0  0  0  0  0  0
   -0.4324   -8.9366   45.3779 N   0  0  0  0  0  0  0  0  0  0  0  0
    0.2884   -8.1934   44.3184 C   0  0  0  0  0  0  0  0  0  0  0  0
    1.6060   -7.6294   44.8647 C   0  0  0  0  0  0  0  0  0  0  0  0
    3.5589   -8.2549   46.3158 C   0  0  0  0  0  0  0  0  0  0  0  0
    4.6809   -7.0045   45.9674 S   0  0  0  0  0  0  0  0  0  0  0  0
    3.7949   -8.8202   47.4810 N   0  0  0  0  0  0  0  0  0  0  0  0
    4.9056   -8.3409   48.1060 N   0  0  0  0  0  0  0  0  0  0  0  0
    5.4700   -7.3903   47.4319 C   0  0  0  0  0  0  0  0  0  0  0  0
    8.1277   -7.8649   46.4644 O   0  0  0  0  0  0  0  0  0  0  0  0
    6.6206   -6.7562   47.7252 N   0  0  0  0  0  0  0  0  0  0  0  0
    7.8830   -6.9925   47.2623 C   0  0  0  0  0  0  0  0  0  0  0  0
    6.5400   -6.0139   48.3670 H   0  0  0  0  0  0  0  0  0  0  0  0
    8.9361   -6.0573   47.8334 C   0  0  0  0  0  0  0  0  0  0  0  0
    8.6057   -4.5944   47.6460 C   0  0  0  0  0  0  0  0  0  0  0  0
    7.3635   -4.0916   48.0519 C   0  0  0  0  0  0  0  0  0  0  0  0
    7.0430   -2.7436   47.8769 C   0  0  0  0  0  0  0  0  0  0  0  0
    7.9610   -1.8790   47.2799 C   0  0  0  0  0  0  0  0  0  0  0  0
    9.2007   -2.3685   46.8654 C   0  0  0  0  0  0  0  0  0  0  0  0
    9.5184   -3.7155   47.0490 C   0  0  0  0  0  0  0  0  0  0  0  0
   -1.8864   -8.6534   45.3804 C   0  0  0  0  0  0  0  0  0  0  0  0
   -2.4797   -8.4571   43.9697 C   0  0  0  0  0  0  0  0  0  0  0  0
   -3.6172   -7.4793   44.0048 C   0  0  0  0  0  0  0  0  0  0  0  0
   -4.4412   -7.5250   44.9582 O   0  0  0  0  0  0  0  0  0  0  0  0
   -3.7698   -6.5168   42.9486 N   0  0  0  0  0  0  0  0  0  0  0  0
   -4.7851   -5.5018   42.9262 C   0  0  0  0  0  0  0  0  0  0  0  0
   -4.8700   -4.6072   41.8176 N   0  0  0  0  0  0  0  0  0  0  0  0
   -5.6041   -5.3865   43.8771 O   0  0  0  0  0  0  0  0  0  0  0  0
   -3.1390   -6.5557   42.1937 H   0  0  0  0  0  0  0  0  0  0  0  0
   -4.2351   -4.6886   41.0696 H   0  0  0  0  0  0  0  0  0  0  0  0
   -5.5635   -3.9086   41.8008 H   0  0  0  0  0  0  0  0  0  0  0  0
  1  8  1  0  0  0
 13 15  2  0  0  0
  9  8  1  0  0  0
  9 12  1  0  0  0
 10 11  1  0  0  0
 10  8  2  0  0  0
 11 12  2  0  0  0
 14 15  1  0  0  0
 14 12  1  0  0  0
 15 17  1  0  0  0
 17 18  1  0  0  0
 18 19  2  0  0  0
 18 23  1  0  0  0
 19 20  1  0  0  0
 20 21  2  0  0  0
 21 22  1  0  0  0
 22 23  2  0  0  0
  2  3  1  0  0  0
  3  4  1  0  0  0
  4  5  1  0  0  0
  5 24  1  0  0  0
 24 25  1  0  0  0
 25 26  1  0  0  0
 26 27  2  0  0  0
 26 28  1  0  0  0
 28 29  1  0  0  0
 29 30  1  0  0  0
 29 31  2  0  0  0
  5  6  1  0  0  0
  6  7  1  0  0  0
  1  2  1  0  0  0
  1  7  1  0  0  0
 14 16  1  0  0  0
 28 32  1  0  0  0
 30 33  1  0  0  0
 30 34  1  0  0  0
M  END
>  <minimizedAffinity>
-9.33983

>  <minimizedRMSD>
0.81862

>  <molecular weight>
410.345

$$$$



 34 37  0  0  0  0  0  0  0  0999 V2000
    3.3396   -8.9332   45.6077 N   0  0  0  0  0  0  0  0  0  0  0  0
    3.9047  -10.1276   44.9008 C   0  0  0  0  0  0  0  0  0  0  0  0
    1.9100   -8.7251   45.5648 C   0  0  0  0  0  0  0  0  0  0  0  0
    1.3480   -8.1711   46.5488 O   0  0  0  0  0  0  0  0  0  0  0  0
    4.1951   -8.2208   46.4545 C   0  0  0  0  0  0  0  0  0  0  0  0
    4.9938   -6.7820   45.9686 S   0  0  0  0  0  0  0  0  0  0  0  0
    4.4991   -8.5620   47.6890 N   0  0  0  0  0  0  0  0  0  0  0  0
    5.4231   -7.7476   48.2694 N   0  0  0  0  0  0  0  0  0  0  0  0
    5.7730   -6.7760   47.4882 C   0  0  0  0  0  0  0  0  0  0  0  0
    8.4833   -6.6328   46.5617 O   0  0  0  0  0  0  0  0  0  0  0  0
    6.7156   -5.8434   47.7203 N   0  0  0  0  0  0  0  0  0  0  0  0
    8.0059   -5.7862   47.2778 C   0  0  0  0  0  0  0  0  0  0  0  0
    6.4334   -5.0935   48.2924 H   0  0  0  0  0  0  0  0  0  0  0  0
    8.7711   -4.5646   47.7596 C   0  0  0  0  0  0  0  0  0  0  0  0
    8.2567   -3.2667   47.1808 C   0  0  0  0  0  0  0  0  0  0  0  0
    6.9071   -2.9179   47.3138 C   0  0  0  0  0  0  0  0  0  0  0  0
    6.4177   -1.7254   46.7765 C   0  0  0  0  0  0  0  0  0  0  0  0
    7.2738   -0.8672   46.0856 C   0  0  0  0  0  0  0  0  0  0  0  0
    8.6202   -1.2056   45.9407 C   0  0  0  0  0  0  0  0  0  0  0  0
    9.1054   -2.3957   46.4858 C   0  0  0  0  0  0  0  0  0  0  0  0
    1.0556   -9.1305   44.3950 C   0  0  0  0  0  0  0  0  0  0  0  0
   -0.2774  -10.2743   44.9010 S   0  0  0  0  0  0  0  0  0  0  0  0
   -1.6116   -9.1365   44.5262 C   0  0  0  0  0  0  0  0  0  0  0  0
   -2.2283   -8.4133   45.5492 C   0  0  0  0  0  0  0  0  0  0  0  0
   -3.2602   -7.5269   45.2350 C   0  0  0  0  0  0  0  0  0  0  0  0
   -3.6777   -7.3702   43.9025 C   0  0  0  0  0  0  0  0  0  0  0  0
   -3.0366   -8.1331   42.9102 C   0  0  0  0  0  0  0  0  0  0  0  0
   -2.0302   -8.9858   43.2421 N   0  0  0  0  0  0  0  0  0  0  0  0
   -4.7644   -6.4207   43.5507 C   0  0  0  0  0  0  0  0  0  0  0  0
   -4.4859   -5.2624   42.7998 C   0  0  0  0  0  0  0  0  0  0  0  0
   -5.5117   -4.3741   42.4616 C   0  0  0  0  0  0  0  0  0  0  0  0
   -6.8232   -4.6291   42.8696 C   0  0  0  0  0  0  0  0  0  0  0  0
   -7.1114   -5.7743   43.6152 C   0  0  0  0  0  0  0  0  0  0  0  0
   -6.0903   -6.6663   43.9558 C   0  0  0  0  0  0  0  0  0  0  0  0
  1  5  1  0  0  0
 10 12  2  0  0  0
  6  5  1  0  0  0
  6  9  1  0  0  0
  7  8  1  0  0  0
  7  5  2  0  0  0
  8  9  2  0  0  0
 11 12  1  0  0  0
 11  9  1  0  0  0
 12 14  1  0  0  0
 14 15  1  0  0  0
 15 16  2  0  0  0
 15 20  1  0  0  0
 16 17  1  0  0  0
 17 18  2  0  0  0
 18 19  1  0  0  0
 19 20  2  0  0  0
  3  4  2  0  0  0
  3 21  1  0  0  0
 21 22  1  0  0  0
 22 23  1  0  0  0
 23 24  2  0  0  0
 24 25  1  0  0  0
 25 26  2  0  0  0
 26 29  1  0  0  0
 29 30  2  0  0  0
 30 31  1  0  0  0
 31 32  2  0  0  0
 32 33  1  0  0  0
 33 34  2  0  0  0
 26 27  1  0  0  0
 27 28  2  0  0  0
 28 23  1  0  0  0
 34 29  1  0  0  0
  1  2  1  0  0  0
  1  3  1  0  0  0
 11 13  1  0  0  0
M  END
>  <minimizedAffinity>
-9.25549

>  <minimizedRMSD>
2.54177

>  <molecular weight>
455.427

$$$$



 25 27  0  0  0  0  0  0  0  0999 V2000
    4.2316   -8.8643   46.2401 C   0  0  0  0  0  0  0  0  0  0  0  0
    4.9573   -7.4079   45.6959 S   0  0  0  0  0  0  0  0  0  0  0  0
    4.2548   -8.9678   47.5522 N   0  0  0  0  0  0  0  0  0  0  0  0
    4.9060   -7.9440   48.1698 N   0  0  0  0  0  0  0  0  0  0  0  0
    5.3270   -7.0568   47.3257 C   0  0  0  0  0  0  0  0  0  0  0  0
    8.0823   -6.5211   46.7376 O   0  0  0  0  0  0  0  0  0  0  0  0
    6.0696   -5.9663   47.5929 N   0  0  0  0  0  0  0  0  0  0  0  0
    7.3833   -5.7221   47.3125 C   0  0  0  0  0  0  0  0  0  0  0  0
    5.5966   -5.2390   48.0583 H   0  0  0  0  0  0  0  0  0  0  0  0
    7.8724   -4.3610   47.7792 C   0  0  0  0  0  0  0  0  0  0  0  0
    7.2194   -3.2068   47.0540 C   0  0  0  0  0  0  0  0  0  0  0  0
    7.4041   -1.8933   47.5027 C   0  0  0  0  0  0  0  0  0  0  0  0
    6.7998   -0.8190   46.8462 C   0  0  0  0  0  0  0  0  0  0  0  0
    5.9893   -1.0467   45.7335 C   0  0  0  0  0  0  0  0  0  0  0  0
    5.7922   -2.3517   45.2793 C   0  0  0  0  0  0  0  0  0  0  0  0
    6.4043   -3.4212   45.9352 C   0  0  0  0  0  0  0  0  0  0  0  0
    3.7011   -9.8176   45.3647 N   0  0  0  0  0  0  0  0  0  0  0  0
    4.0947   -9.9189   44.4680 H   0  0  0  0  0  0  0  0  0  0  0  0
    2.6051  -10.6444   45.7404 C   0  0  0  0  0  0  0  0  0  0  0  0
    1.2849  -10.0217   45.3617 C   0  0  0  0  0  0  0  0  0  0  0  0
    0.1036  -10.7423   45.6052 C   0  0  0  0  0  0  0  0  0  0  0  0
   -1.1402  -10.1998   45.2685 C   0  0  0  0  0  0  0  0  0  0  0  0
   -1.2169   -8.9329   44.6856 C   0  0  0  0  0  0  0  0  0  0  0  0
   -0.0498   -8.2062   44.4384 C   0  0  0  0  0  0  0  0  0  0  0  0
    1.1971   -8.7440   44.7732 C   0  0  0  0  0  0  0  0  0  0  0  0
 17  1  1  0  0  0
  6  8  2  0  0  0
  2  1  1  0  0  0
  2  5  1  0  0  0
  3  4  1  0  0  0
  3  1  2  0  0  0
  4  5  2  0  0  0
  7  8  1  0  0  0
  7  5  1  0  0  0
  8 10  1  0  0  0
 10 11  1  0  0  0
 11 12  2  0  0  0
 11 16  1  0  0  0
 12 13  1  0  0  0
 13 14  2  0  0  0
 14 15  1  0  0  0
 15 16  2  0  0  0
 19 20  1  0  0  0
 20 21  2  0  0  0
 21 22  1  0  0  0
 22 23  2  0  0  0
 23 24  1  0  0  0
 24 25  2  0  0  0
 25 20  1  0  0  0
 17 19  1  0  0  0
 17 18  1  0  0  0
  7  9  1  0  0  0
M  END
>  <minimizedAffinity>
-9.23522

>  <minimizedRMSD>
1.7757

>  <molecular weight>
310.289

$$$$



 34 37  0  0  0  0  0  0  0  0999 V2000
    3.6065   -9.7471   45.5698 N   0  0  0  0  0  0  0  0  0  0  0  0
    4.0785   -9.9989   44.2046 C   0  0  0  0  0  0  0  0  0  0  0  0
    4.2155   -8.8061   46.4065 C   0  0  0  0  0  0  0  0  0  0  0  0
    4.8751   -7.3342   45.8211 S   0  0  0  0  0  0  0  0  0  0  0  0
    4.3693   -8.9336   47.7077 N   0  0  0  0  0  0  0  0  0  0  0  0
    5.0724   -7.9162   48.2772 N   0  0  0  0  0  0  0  0  0  0  0  0
    5.4023   -7.0103   47.4128 C   0  0  0  0  0  0  0  0  0  0  0  0
    8.1497   -6.5249   46.7487 O   0  0  0  0  0  0  0  0  0  0  0  0
    6.1612   -5.9192   47.6260 N   0  0  0  0  0  0  0  0  0  0  0  0
    7.4710   -5.6989   47.3098 C   0  0  0  0  0  0  0  0  0  0  0  0
    5.7054   -5.1711   48.0753 H   0  0  0  0  0  0  0  0  0  0  0  0
    7.9834   -4.3276   47.7182 C   0  0  0  0  0  0  0  0  0  0  0  0
    7.2611   -3.1887   47.0359 C   0  0  0  0  0  0  0  0  0  0  0  0
    6.4329   -3.4346   45.9339 C   0  0  0  0  0  0  0  0  0  0  0  0
    5.7664   -2.3901   45.2898 C   0  0  0  0  0  0  0  0  0  0  0  0
    5.9294   -1.0777   45.7346 C   0  0  0  0  0  0  0  0  0  0  0  0
    6.7567   -0.8180   46.8284 C   0  0  0  0  0  0  0  0  0  0  0  0
    7.4152   -1.8668   47.4728 C   0  0  0  0  0  0  0  0  0  0  0  0
    2.4219  -10.5300   46.0503 C   0  0  0  0  0  0  0  0  0  0  0  0
    1.2164   -9.6412   46.1204 C   0  0  0  0  0  0  0  0  0  0  0  0
    1.3512   -8.4369   46.4785 O   0  0  0  0  0  0  0  0  0  0  0  0
   -0.0788  -10.1506   45.7743 N   0  0  0  0  0  0  0  0  0  0  0  0
   -0.2693  -11.1027   45.9367 H   0  0  0  0  0  0  0  0  0  0  0  0
   -1.1099   -9.3316   45.2009 C   0  0  0  0  0  0  0  0  0  0  0  0
   -1.2836   -9.2520   43.8108 C   0  0  0  0  0  0  0  0  0  0  0  0
   -2.3195   -8.4889   43.2712 C   0  0  0  0  0  0  0  0  0  0  0  0
   -3.1910   -7.7745   44.1097 C   0  0  0  0  0  0  0  0  0  0  0  0
   -3.0147   -7.8570   45.5016 C   0  0  0  0  0  0  0  0  0  0  0  0
   -1.9912   -8.6392   46.0426 C   0  0  0  0  0  0  0  0  0  0  0  0
   -4.2534   -6.9874   43.5434 N   0  0  0  0  0  0  0  0  0  0  0  0
   -5.5315   -7.3340   43.3130 C   0  0  0  0  0  0  0  0  0  0  0  0
   -6.2027   -6.2829   42.8066 N   0  0  0  0  0  0  0  0  0  0  0  0
   -5.3163   -5.3018   42.7348 N   0  0  0  0  0  0  0  0  0  0  0  0
   -4.1438   -5.7201   43.1831 N   0  0  0  0  0  0  0  0  0  0  0  0
  1  3  1  0  0  0
  8 10  2  0  0  0
  4  3  1  0  0  0
  4  7  1  0  0  0
  5  6  1  0  0  0
  5  3  2  0  0  0
  6  7  2  0  0  0
  9 10  1  0  0  0
  9  7  1  0  0  0
 10 12  1  0  0  0
 12 13  1  0  0  0
 13 14  2  0  0  0
 13 18  1  0  0  0
 14 15  1  0  0  0
 15 16  2  0  0  0
 16 17  1  0  0  0
 17 18  2  0  0  0
 19 20  1  0  0  0
 20 21  2  0  0  0
 20 22  1  0  0  0
 22 24  1  0  0  0
 24 25  2  0  0  0
 25 26  1  0  0  0
 26 27  2  0  0  0
 27 30  1  0  0  0
 30 31  1  0  0  0
 31 32  2  0  0  0
 32 33  1  0  0  0
 33 34  2  0  0  0
 27 28  1  0  0  0
 28 29  2  0  0  0
 29 24  1  0  0  0
 34 30  1  0  0  0
  1  2  1  0  0  0
  1 19  1  0  0  0
  9 11  1  0  0  0
 22 23  1  0  0  0
M  END
>  <minimizedAffinity>
-9.22073

>  <minimizedRMSD>
1.58516

>  <molecular weight>
432.354

$$$$
