


 34 37  0  0  0  0  0  0  0  0999 V2000
    2.9154  -10.1620   45.6829 N   0  0  0  0  0  0  0  0  0  0  0  0
    2.8336  -11.5266   46.2991 C   0  0  0  0  0  0  0  0  0  0  0  0
    3.6884   -9.1951   46.3340 C   0  0  0  0  0  0  0  0  0  0  0  0
    4.4657   -7.9131   45.4995 S   0  0  0  0  0  0  0  0  0  0  0  0
    3.9235   -9.1563   47.6287 N   0  0  0  0  0  0  0  0  0  0  0  0
    4.7785   -8.1636   47.9994 N   0  0  0  0  0  0  0  0  0  0  0  0
    5.1439   -7.4362   46.9924 C   0  0  0  0  0  0  0  0  0  0  0  0
    8.0095   -7.5190   47.0720 O   0  0  0  0  0  0  0  0  0  0  0  0
    6.0359   -6.4281   46.9971 N   0  0  0  0  0  0  0  0  0  0  0  0
    7.3997   -6.4775   47.0396 C   0  0  0  0  0  0  0  0  0  0  0  0
    5.6485   -5.5235   46.9653 H   0  0  0  0  0  0  0  0  0  0  0  0
    8.0682   -5.1126   47.0327 C   0  0  0  0  0  0  0  0  0  0  0  0
    7.4640   -4.1528   46.0337 C   0  0  0  0  0  0  0  0  0  0  0  0
    6.0784   -3.9551   45.9907 C   0  0  0  0  0  0  0  0  0  0  0  0
    5.5071   -3.0771   45.0671 C   0  0  0  0  0  0  0  0  0  0  0  0
    6.3173   -2.3906   44.1621 C   0  0  0  0  0  0  0  0  0  0  0  0
    7.6995   -2.5829   44.1903 C   0  0  0  0  0  0  0  0  0  0  0  0
    8.2659   -3.4566   45.1203 C   0  0  0  0  0  0  0  0  0  0  0  0
    2.0429   -9.8967   44.5328 C   0  0  0  0  0  0  0  0  0  0  0  0
    0.8067   -9.1751   44.9792 C   0  0  0  0  0  0  0  0  0  0  0  0
    0.7604   -7.9161   44.8900 O   0  0  0  0  0  0  0  0  0  0  0  0
   -0.3084   -9.9076   45.5167 N   0  0  0  0  0  0  0  0  0  0  0  0
   -0.2326  -10.8853   45.6037 H   0  0  0  0  0  0  0  0  0  0  0  0
   -1.5486   -9.2614   45.9388 C   0  0  0  0  0  0  0  0  0  0  0  0
   -2.5476   -9.2085   44.7792 C   0  0  0  0  0  0  0  0  0  0  0  0
   -3.8109   -8.5195   45.2013 C   0  0  0  0  0  0  0  0  0  0  0  0
   -4.5393   -8.7706   46.3608 C   0  0  0  0  0  0  0  0  0  0  0  0
   -5.6288   -7.9711   46.4175 N   0  0  0  0  0  0  0  0  0  0  0  0
   -5.5940   -7.2165   45.3057 C   0  0  0  0  0  0  0  0  0  0  0  0
   -6.5075   -6.2340   44.9249 C   0  0  0  0  0  0  0  0  0  0  0  0
   -6.2737   -5.5517   43.7183 C   0  0  0  0  0  0  0  0  0  0  0  0
   -5.1432   -5.8593   42.9296 C   0  0  0  0  0  0  0  0  0  0  0  0
   -4.2374   -6.8556   43.3379 C   0  0  0  0  0  0  0  0  0  0  0  0
   -4.4988   -7.5215   44.5365 C   0  0  0  0  0  0  0  0  0  0  0  0
  1  3  1  0  0  0
  8 10  2  0  0  0
  4  3  1  0  0  0
  4  7  1  0  0  0
  5  6  1  0  0  0
  5  3  2  0  0  0
  6  7  2  0  0  0
  9 10  1  0  0  0
  9  7  1  0  0  0
 10 12  1  0  0  0
 12 13  1  0  0  0
 13 14  2  0  0  0
 13 18  1  0  0  0
 14 15  1  0  0  0
 15 16  2  0  0  0
 16 17  1  0  0  0
 17 18  2  0  0  0
 19 20  1  0  0  0
 20 21  2  0  0  0
 20 22  1  0  0  0
 22 24  1  0  0  0
 24 25  1  0  0  0
 25 26  1  0  0  0
 26 27  2  0  0  0
 27 28  1  0  0  0
 28 29  2  0  0  0
 29 30  1  0  0  0
 30 31  1  0  0  0
 31 32  2  0  0  0
 32 33  1  0  0  0
 33 34  2  0  0  0
 34 26  1  0  0  0
 34 29  1  0  0  0
  1  2  1  0  0  0
  1 19  1  0  0  0
  9 11  1  0  0  0
 22 23  1  0  0  0
M  END
>  <CNNaffinity>
8.42978

>  <CNNscore>
0.970238

>  <minimizedAffinity>
-1.25369

>  <minimizedRMSD>
3.17324

>  <molecular weight>
426.366

$$$$



 39 45  0  0  0  0  0  0  0  0999 V2000
    7.3775   -7.0214   48.1020 C   0  0  0  0  0  0  0  0  0  0  0  0
    6.5361   -6.7581   46.6394 S   0  0  0  0  0  0  0  0  0  0  0  0
    5.8257   -8.5792   48.2368 N   0  0  0  0  0  0  0  0  0  0  0  0
    6.9034   -7.9877   48.8219 N   0  0  0  0  0  0  0  0  0  0  0  0
    5.5256   -8.0807   47.0559 C   0  0  0  0  0  0  0  0  0  0  0  0
    8.4770   -6.2853   48.3493 N   0  0  0  0  0  0  0  0  0  0  0  0
    9.0076   -8.5952   37.7049 O   0  0  0  0  0  0  0  0  0  0  0  0
    9.6875   -7.2765   37.9287 C   0  0  0  0  0  0  0  0  0  0  0  0
   10.4125   -6.6590   36.8987 C   0  0  0  0  0  0  0  0  0  0  0  0
   11.0370   -5.4297   37.1199 C   0  0  0  0  0  0  0  0  0  0  0  0
   10.9483   -4.8109   38.3690 C   0  0  0  0  0  0  0  0  0  0  0  0
   10.2372   -5.4208   39.4176 C   0  0  0  0  0  0  0  0  0  0  0  0
   10.1292   -4.7780   40.7034 N   0  0  0  0  0  0  0  0  0  0  0  0
    7.1842   -4.9774   46.8100 C   0  0  0  0  0  0  0  0  0  0  0  0
    8.3471   -5.0584   47.5606 C   0  0  0  0  0  0  0  0  0  0  0  0
    8.9920   -4.9057   41.6014 S   0  0  0  0  0  0  0  0  0  0  0  0
    9.5464   -4.5907   43.0236 O   0  0  0  0  0  0  0  0  0  0  0  0
    9.1523   -3.1796   43.4628 O   0  0  0  0  0  0  0  0  0  0  0  0
    7.8040   -3.3582   44.1544 C   0  0  0  0  0  0  0  0  0  0  0  0
    6.9209   -4.5183   43.9505 C   0  0  0  0  0  0  0  0  0  0  0  0
    5.8684   -4.7753   45.3194 C   0  0  0  0  0  0  0  0  0  0  0  0
    4.9675   -3.5848   45.4925 C   0  0  0  0  0  0  0  0  0  0  0  0
    6.6751   -4.9605   46.5759 S   0  0  0  0  0  0  0  0  0  0  0  0
    3.5044  -10.3820   44.7821 C   0  0  0  0  0  0  0  0  0  0  0  0
    4.5200   -8.5594   46.2097 N   0  0  0  0  0  0  0  0  0  0  0  0
    2.1773   -9.9491   45.4307 C   0  0  0  0  0  0  0  0  0  0  0  0
    2.1318   -8.4116   45.3839 C   0  0  0  0  0  0  0  0  0  0  0  0
    3.2372   -7.8256   46.2747 C   0  0  0  0  0  0  0  0  0  0  0  0
    4.6962   -9.9047   45.6219 C   0  0  0  0  0  0  0  0  0  0  0  0
    0.9604  -10.5884   44.7391 C   0  0  0  0  0  0  0  0  0  0  0  0
   -0.3572   -8.8246   43.6278 N   0  0  0  0  0  0  0  0  0  0  0  0
   -1.5176   -8.1708   43.7488 N   0  0  0  0  0  0  0  0  0  0  0  0
   -0.2431   -9.6912   44.6195 C   0  0  0  0  0  0  0  0  0  0  0  0
   -1.3441   -9.6225   45.4158 N   0  0  0  0  0  0  0  0  0  0  0  0
   -3.8057   -8.9288   46.5005 N   0  0  0  0  0  0  0  0  0  0  0  0
   -2.1079   -8.6581   44.8273 C   0  0  0  0  0  0  0  0  0  0  0  0
   -3.3820   -8.3290   45.4259 C   0  0  0  0  0  0  0  0  0  0  0  0
   -2.9866   -9.9112   47.0663 C   0  0  0  0  0  0  0  0  0  0  0  0
   -1.7717  -10.2828   46.5668 C   0  0  0  0  0  0  0  0  0  0  0  0
 24 26  1  0  0  0
 24 29  1  0  0  0
 25 29  1  0  0  0
 25  5  1  0  0  0
 25 28  1  0  0  0
  2  5  1  0  0  0
  2  1  1  0  0  0
 26 27  1  0  0  0
 26 30  1  0  0  0
  3  4  1  0  0  0
  3  5  2  0  0  0
 27 28  1  0  0  0
  4  1  2  0  0  0
  6  1  1  0  0  0
 31 32  1  0  0  0
 31 33  2  0  0  0
 30 33  1  0  0  0
 32 36  2  0  0  0
 33 34  1  0  0  0
 34 39  1  0  0  0
 34 36  1  0  0  0
 35 38  1  0  0  0
 35 37  2  0  0  0
 36 37  1  0  0  0
 38 39  2  0  0  0
  7  8  2  0  0  0
  8  9  1  0  0  0
  9 10  1  0  0  0
 10 11  1  0  0  0
 11 12  1  0  0  0
 12 13  1  0  0  0
 13 16  1  0  0  0
 16 17  2  0  0  0
 16 18  2  0  0  0
 16 19  1  0  0  0
 19 20  2  0  0  0
 20 21  1  0  0  0
 21 22  2  0  0  0
 22 23  1  0  0  0
 13 14  1  0  0  0
 10 15  1  0  0  0
 14 10  1  0  0  0
 23 19  1  0  0  0
  6 15  1  0  0  0
  6  8  1  0  0  0
M  END
>  <CNNaffinity>
8.29966

>  <CNNscore>
0.537199

>  <minimizedAffinity>
17.962

>  <minimizedRMSD>
2.95635

>  <molecular weight>
558.51

$$$$



 50 57  0  0  0  0  0  0  0  0999 V2000
    6.7291   -6.8350   47.8697 N   0  0  0  0  0  0  0  0  0  0  0  0
    6.7326   -3.5127   46.2883 C   0  0  0  0  0  0  0  0  0  0  0  0
    7.9815   -3.1160   46.6976 N   0  0  0  0  0  0  0  0  0  0  0  0
    8.7673   -3.9189   47.4713 C   0  0  0  0  0  0  0  0  0  0  0  0
    8.2749   -5.1689   47.8163 C   0  0  0  0  0  0  0  0  0  0  0  0
    8.8060   -6.1970   48.5586 C   0  0  0  0  0  0  0  0  0  0  0  0
    7.8262   -7.1884   48.5495 C   0  0  0  0  0  0  0  0  0  0  0  0
    7.0361   -5.5538   47.4027 C   0  0  0  0  0  0  0  0  0  0  0  0
    6.2561   -4.7414   46.6484 N   0  0  0  0  0  0  0  0  0  0  0  0
    5.5789   -7.5248   47.7554 C   0  0  0  0  0  0  0  0  0  0  0  0
    4.7220   -7.4359   46.2810 S   0  0  0  0  0  0  0  0  0  0  0  0
    3.9336   -8.9346   48.1531 N   0  0  0  0  0  0  0  0  0  0  0  0
    5.0607   -8.3333   48.6241 N   0  0  0  0  0  0  0  0  0  0  0  0
    3.6384   -8.6067   46.9128 C   0  0  0  0  0  0  0  0  0  0  0  0
    0.8577  -10.9386   45.7380 C   0  0  0  0  0  0  0  0  0  0  0  0
    2.5843   -9.1422   46.1655 N   0  0  0  0  0  0  0  0  0  0  0  0
   -0.0868   -9.7579   45.4499 C   0  0  0  0  0  0  0  0  0  0  0  0
    0.6775   -8.7791   44.5410 C   0  0  0  0  0  0  0  0  0  0  0  0
    1.8696   -8.1784   45.3003 C   0  0  0  0  0  0  0  0  0  0  0  0
    2.0700  -10.4729   46.5544 C   0  0  0  0  0  0  0  0  0  0  0  0
   -1.4139  -10.2191   44.8222 C   0  0  0  0  0  0  0  0  0  0  0  0
   -1.6590   -8.9483   42.7229 N   0  0  0  0  0  0  0  0  0  0  0  0
   -2.4394   -8.0169   42.1643 N   0  0  0  0  0  0  0  0  0  0  0  0
   -2.0897   -9.1961   43.9479 C   0  0  0  0  0  0  0  0  0  0  0  0
   -3.1775   -8.4240   44.2151 N   0  0  0  0  0  0  0  0  0  0  0  0
   -5.2648   -6.6026   44.0078 N   0  0  0  0  0  0  0  0  0  0  0  0
   -3.3535   -7.7069   43.0685 C   0  0  0  0  0  0  0  0  0  0  0  0
   -4.4527   -6.7703   43.0046 C   0  0  0  0  0  0  0  0  0  0  0  0
   -5.0434   -7.3615   45.1615 C   0  0  0  0  0  0  0  0  0  0  0  0
   -4.0315   -8.2665   45.3058 C   0  0  0  0  0  0  0  0  0  0  0  0
    5.9446   -2.6769   45.4299 N   0  0  0  0  0  0  0  0  0  0  0  0
    5.0544   -2.9917   45.1513 H   0  0  0  0  0  0  0  0  0  0  0  0
    6.7823   -0.3903   45.8659 C   0  0  0  0  0  0  0  0  0  0  0  0
    7.2510    0.8409   45.3659 C   0  0  0  0  0  0  0  0  0  0  0  0
    7.3168    1.0736   43.9811 C   0  0  0  0  0  0  0  0  0  0  0  0
    6.8956    0.0719   43.0970 C   0  0  0  0  0  0  0  0  0  0  0  0
    6.4331   -1.1504   43.5829 C   0  0  0  0  0  0  0  0  0  0  0  0
    6.4017   -1.4001   44.9605 C   0  0  0  0  0  0  0  0  0  0  0  0
    7.8142    2.3233   43.4667 N   0  0  0  0  0  0  0  0  0  0  0  0
    8.9708    2.9758   44.0887 C   0  0  0  0  0  0  0  0  0  0  0  0
    9.8153    3.6685   43.0115 C   0  0  0  0  0  0  0  0  0  0  0  0
    9.0137    4.5368   42.1269 N   0  0  0  0  0  0  0  0  0  0  0  0
    7.8452    3.8479   41.5418 C   0  0  0  0  0  0  0  0  0  0  0  0
    6.9752    3.1412   42.5905 C   0  0  0  0  0  0  0  0  0  0  0  0
    8.6104    6.0684   42.8775 S   0  0  0  0  0  0  0  0  0  0  0  0
    7.8976    7.1710   41.6753 C   0  0  0  0  0  0  0  0  0  0  0  0
    7.6412    5.8817   44.0105 O   0  0  0  0  0  0  0  0  0  0  0  0
    9.8613    6.7079   43.4113 O   0  0  0  0  0  0  0  0  0  0  0  0
    6.9201    0.3270   48.2592 C   0  0  0  0  0  0  0  0  0  0  0  0
    6.6579   -0.6344   47.2436 O   0  0  0  0  0  0  0  0  0  0  0  0
 15 17  1  0  0  0
 15 20  1  0  0  0
 16 20  1  0  0  0
 16 14  1  0  0  0
 16 19  1  0  0  0
 11 14  1  0  0  0
 11 10  1  0  0  0
 17 18  1  0  0  0
 17 21  1  0  0  0
 12 13  1  0  0  0
 12 14  2  0  0  0
 18 19  1  0  0  0
 13 10  2  0  0  0
  1 10  1  0  0  0
 22 23  1  0  0  0
 22 24  2  0  0  0
 21 24  1  0  0  0
 23 27  2  0  0  0
 24 25  1  0  0  0
 25 30  1  0  0  0
 25 27  1  0  0  0
 26 29  1  0  0  0
 26 28  2  0  0  0
 27 28  1  0  0  0
 29 30  2  0  0  0
 49 50  1  0  0  0
 50 33  1  0  0  0
 33 34  2  0  0  0
 34 35  1  0  0  0
 35 39  1  0  0  0
 39 40  1  0  0  0
 40 41  1  0  0  0
 41 42  1  0  0  0
 42 45  1  0  0  0
 45 46  1  0  0  0
 45 47  2  0  0  0
 45 48  2  0  0  0
 42 43  1  0  0  0
 43 44  1  0  0  0
 35 36  2  0  0  0
 36 37  1  0  0  0
 37 38  2  0  0  0
 38 31  1  0  0  0
 31  2  1  0  0  0
  2  3  2  0  0  0
  3  4  1  0  0  0
  4  5  2  0  0  0
  5  6  1  0  0  0
  6  7  2  0  0  0
  8  9  2  0  0  0
 38 33  1  0  0  0
  9  2  1  0  0  0
 44 39  1  0  0  0
  8  5  1  0  0  0
  1  7  1  0  0  0
  1  8  1  0  0  0
 31 32  1  0  0  0
M  END
>  <CNNaffinity>
8.22032

>  <CNNscore>
0.290042

>  <minimizedAffinity>
-2.48893

>  <minimizedRMSD>
0.74461

>  <molecular weight>
667.555

$$$$



 31 34  0  0  0  0  0  0  0  0999 V2000
    3.7550   -8.8674   46.9066 C   0  0  0  0  0  0  0  0  0  0  0  0
    4.5144   -7.7052   45.8984 S   0  0  0  0  0  0  0  0  0  0  0  0
    4.3288   -8.9465   48.0887 N   0  0  0  0  0  0  0  0  0  0  0  0
    5.4265   -8.1513   48.2177 N   0  0  0  0  0  0  0  0  0  0  0  0
    5.6441   -7.4474   47.1528 C   0  0  0  0  0  0  0  0  0  0  0  0
    8.0968   -7.9336   45.7484 O   0  0  0  0  0  0  0  0  0  0  0  0
    6.6823   -6.6230   46.9197 N   0  0  0  0  0  0  0  0  0  0  0  0
    7.8489   -6.8652   46.2530 C   0  0  0  0  0  0  0  0  0  0  0  0
    6.5864   -5.7129   47.2827 H   0  0  0  0  0  0  0  0  0  0  0  0
    8.7895   -5.6727   46.1996 C   0  0  0  0  0  0  0  0  0  0  0  0
    8.0872   -4.3661   45.9096 C   0  0  0  0  0  0  0  0  0  0  0  0
    7.0397   -3.9283   46.7293 C   0  0  0  0  0  0  0  0  0  0  0  0
    6.3775   -2.7271   46.4674 C   0  0  0  0  0  0  0  0  0  0  0  0
    6.7485   -1.9496   45.3699 C   0  0  0  0  0  0  0  0  0  0  0  0
    7.7872   -2.3773   44.5413 C   0  0  0  0  0  0  0  0  0  0  0  0
    8.4503   -3.5756   44.8118 C   0  0  0  0  0  0  0  0  0  0  0  0
    2.6651   -9.6365   46.4855 N   0  0  0  0  0  0  0  0  0  0  0  0
    2.3875  -10.3860   47.0602 H   0  0  0  0  0  0  0  0  0  0  0  0
    1.9319   -9.4177   45.2955 C   0  0  0  0  0  0  0  0  0  0  0  0
    1.1289   -8.1563   45.3346 C   0  0  0  0  0  0  0  0  0  0  0  0
   -0.1889   -8.8154   45.3638 N   0  0  0  0  0  0  0  0  0  0  0  0
   -1.5586   -8.4205   45.3969 C   0  0  0  0  0  0  0  0  0  0  0  0
   -1.8450   -7.1948   45.4469 O   0  0  0  0  0  0  0  0  0  0  0  0
    0.5876  -10.0684   45.3249 C   0  0  0  0  0  0  0  0  0  0  0  0
   -2.6131   -9.4521   45.4469 C   0  0  0  0  0  0  0  0  0  0  0  0
   -3.8801   -9.2936   45.0350 C   0  0  0  0  0  0  0  0  0  0  0  0
   -4.3931   -8.1465   44.2647 C   0  0  0  0  0  0  0  0  0  0  0  0
   -3.7609   -7.4934   43.2101 C   0  0  0  0  0  0  0  0  0  0  0  0
   -4.5632   -6.5209   42.6012 C   0  0  0  0  0  0  0  0  0  0  0  0
   -5.8345   -6.4226   43.1507 C   0  0  0  0  0  0  0  0  0  0  0  0
   -5.9599   -7.5519   44.3898 S   0  0  0  0  0  0  0  0  0  0  0  0
 17  1  1  0  0  0
  6  8  2  0  0  0
  2  1  1  0  0  0
  2  5  1  0  0  0
  3  4  1  0  0  0
  3  1  2  0  0  0
  4  5  2  0  0  0
  7  8  1  0  0  0
  7  5  1  0  0  0
  8 10  1  0  0  0
 10 11  1  0  0  0
 11 12  2  0  0  0
 11 16  1  0  0  0
 12 13  1  0  0  0
 13 14  2  0  0  0
 14 15  1  0  0  0
 15 16  2  0  0  0
 19 20  1  0  0  0
 20 21  1  0  0  0
 21 22  1  0  0  0
 22 23  2  0  0  0
 22 25  1  0  0  0
 25 26  2  0  0  0
 26 27  1  0  0  0
 27 28  2  0  0  0
 28 29  1  0  0  0
 29 30  2  0  0  0
 30 31  1  0  0  0
 21 24  1  0  0  0
 24 19  1  0  0  0
 31 27  1  0  0  0
 17 19  1  0  0  0
 17 18  1  0  0  0
  7  9  1  0  0  0
M  END
>  <CNNaffinity>
8.20463

>  <CNNscore>
0.93808

>  <minimizedAffinity>
2.85614

>  <minimizedRMSD>
1.79853

>  <molecular weight>
408.392

$$$$



 36 40  0  0  0  0  0  0  0  0999 V2000
    2.9973   -9.3723   45.7531 N   0  0  0  0  0  0  0  0  0  0  0  0
    2.4112  -10.6300   46.3378 C   0  0  0  0  0  0  0  0  0  0  0  0
    0.9454  -10.8818   45.9528 C   0  0  0  0  0  0  0  0  0  0  0  0
    0.0443   -9.6632   46.2112 C   0  0  0  0  0  0  0  0  0  0  0  0
   -0.0335   -8.7910   45.0152 N   0  0  0  0  0  0  0  0  0  0  0  0
    1.1842   -7.9623   44.8672 C   0  0  0  0  0  0  0  0  0  0  0  0
    2.4122   -8.8132   44.5306 C   0  0  0  0  0  0  0  0  0  0  0  0
    4.0892   -8.8084   46.4210 C   0  0  0  0  0  0  0  0  0  0  0  0
    4.8223   -7.3389   45.9239 S   0  0  0  0  0  0  0  0  0  0  0  0
    4.6848   -9.3260   47.4747 N   0  0  0  0  0  0  0  0  0  0  0  0
    5.7791   -8.6262   47.8828 N   0  0  0  0  0  0  0  0  0  0  0  0
    5.9726   -7.5657   47.1655 C   0  0  0  0  0  0  0  0  0  0  0  0
    8.3682   -7.3989   45.5976 O   0  0  0  0  0  0  0  0  0  0  0  0
    7.0007   -6.7010   47.2510 N   0  0  0  0  0  0  0  0  0  0  0  0
    8.1402   -6.6323   46.5021 C   0  0  0  0  0  0  0  0  0  0  0  0
    6.9192   -6.0190   47.9563 H   0  0  0  0  0  0  0  0  0  0  0  0
    9.0779   -5.5061   46.9050 C   0  0  0  0  0  0  0  0  0  0  0  0
    8.3820   -4.1743   47.0680 C   0  0  0  0  0  0  0  0  0  0  0  0
    7.3755   -4.0143   48.0282 C   0  0  0  0  0  0  0  0  0  0  0  0
    6.7194   -2.7913   48.1832 C   0  0  0  0  0  0  0  0  0  0  0  0
    7.0552   -1.7101   47.3678 C   0  0  0  0  0  0  0  0  0  0  0  0
    8.0528   -1.8577   46.4027 C   0  0  0  0  0  0  0  0  0  0  0  0
    8.7101   -3.0806   46.2568 C   0  0  0  0  0  0  0  0  0  0  0  0
   -1.2219   -7.9109   45.0859 C   0  0  0  0  0  0  0  0  0  0  0  0
   -2.3380   -8.4357   44.2216 C   0  0  0  0  0  0  0  0  0  0  0  0
   -2.0769   -8.7370   43.0250 O   0  0  0  0  0  0  0  0  0  0  0  0
   -3.6989   -8.5186   44.6969 N   0  0  0  0  0  0  0  0  0  0  0  0
   -4.0048   -9.1215   46.0050 C   0  0  0  0  0  0  0  0  0  0  0  0
   -5.3574   -8.6212   46.5789 C   0  0  0  0  0  0  0  0  0  0  0  0
   -6.2653   -8.0702   45.6337 O   0  0  0  0  0  0  0  0  0  0  0  0
   -6.1367   -8.6921   44.3728 C   0  0  0  0  0  0  0  0  0  0  0  0
   -7.3580   -8.3494   43.4834 C   0  0  0  0  0  0  0  0  0  0  0  0
   -7.0882   -7.2479   42.4467 C   0  0  0  0  0  0  0  0  0  0  0  0
   -6.1760   -6.1693   43.0236 C   0  0  0  0  0  0  0  0  0  0  0  0
   -4.7930   -6.7357   43.3906 C   0  0  0  0  0  0  0  0  0  0  0  0
   -4.7964   -8.2453   43.7532 C   0  0  0  0  0  0  0  0  0  0  0  0
  1  8  1  0  0  0
 13 15  2  0  0  0
  9  8  1  0  0  0
  9 12  1  0  0  0
 10 11  1  0  0  0
 10  8  2  0  0  0
 11 12  2  0  0  0
 14 15  1  0  0  0
 14 12  1  0  0  0
 15 17  1  0  0  0
 17 18  1  0  0  0
 18 19  2  0  0  0
 18 23  1  0  0  0
 19 20  1  0  0  0
 20 21  2  0  0  0
 21 22  1  0  0  0
 22 23  2  0  0  0
  2  3  1  0  0  0
  3  4  1  0  0  0
  4  5  1  0  0  0
  5 24  1  0  0  0
 24 25  1  0  0  0
 25 26  2  0  0  0
 25 27  1  0  0  0
 27 28  1  0  0  0
 28 29  1  0  0  0
 29 30  1  0  0  0
 30 31  1  0  0  0
 31 32  1  0  0  0
 32 33  1  0  0  0
 33 34  1  0  0  0
 34 35  1  0  0  0
 35 36  1  0  0  0
  5  6  1  0  0  0
  6  7  1  0  0  0
 36 27  1  0  0  0
 36 31  1  0  0  0
  1  2  1  0  0  0
  1  7  1  0  0  0
 14 16  1  0  0  0
M  END
>  <CNNaffinity>
8.12011

>  <CNNscore>
0.963592

>  <minimizedAffinity>
0.95649

>  <minimizedRMSD>
1.41848

>  <molecular weight>
465.379

$$$$



 24 27  0  0  0  0  0  0  0  0999 V2000
    1.0088  -10.6806   45.7051 C   0  0  0  0  0  0  0  0  0  0  0  0
    2.7680   -8.8801   45.9402 N   0  0  0  0  0  0  0  0  0  0  0  0
    0.0109   -9.5108   45.7755 C   0  0  0  0  0  0  0  0  0  0  0  0
    0.5382   -8.4099   44.8384 C   0  0  0  0  0  0  0  0  0  0  0  0
    1.8651   -7.8535   45.3754 C   0  0  0  0  0  0  0  0  0  0  0  0
    2.3699  -10.2638   46.2771 C   0  0  0  0  0  0  0  0  0  0  0  0
    6.0909   -7.4571   46.9619 C   0  0  0  0  0  0  0  0  0  0  0  0
    5.0645   -7.4301   45.5974 S   0  0  0  0  0  0  0  0  0  0  0  0
    4.3763   -8.6158   47.7171 N   0  0  0  0  0  0  0  0  0  0  0  0
    5.6098   -8.1013   47.9769 N   0  0  0  0  0  0  0  0  0  0  0  0
    3.9585   -8.3923   46.4889 C   0  0  0  0  0  0  0  0  0  0  0  0
    7.3102   -6.8965   46.8567 N   0  0  0  0  0  0  0  0  0  0  0  0
    8.2753   -7.4589   47.7609 C   0  0  0  0  0  0  0  0  0  0  0  0
    7.5201   -6.1729   46.2230 H   0  0  0  0  0  0  0  0  0  0  0  0
   -1.4190   -9.9482   45.4124 C   0  0  0  0  0  0  0  0  0  0  0  0
   -1.6719   -8.9767   43.1597 N   0  0  0  0  0  0  0  0  0  0  0  0
   -2.4708   -8.1519   42.4742 N   0  0  0  0  0  0  0  0  0  0  0  0
   -2.1117   -9.0715   44.4028 C   0  0  0  0  0  0  0  0  0  0  0  0
   -3.2244   -8.3034   44.5540 N   0  0  0  0  0  0  0  0  0  0  0  0
   -5.3594   -6.5890   44.0852 N   0  0  0  0  0  0  0  0  0  0  0  0
   -3.4053   -7.7514   43.3201 C   0  0  0  0  0  0  0  0  0  0  0  0
   -4.5296   -6.8648   43.1211 C   0  0  0  0  0  0  0  0  0  0  0  0
   -5.1320   -7.1803   45.3320 C   0  0  0  0  0  0  0  0  0  0  0  0
   -4.0970   -8.0274   45.6057 C   0  0  0  0  0  0  0  0  0  0  0  0
  1  3  1  0  0  0
  1  6  1  0  0  0
  2  6  1  0  0  0
  2 11  1  0  0  0
  2  5  1  0  0  0
  8 11  1  0  0  0
  8  7  1  0  0  0
  3  4  1  0  0  0
  3 15  1  0  0  0
  9 10  1  0  0  0
  9 11  2  0  0  0
  4  5  1  0  0  0
 10  7  2  0  0  0
 12  7  1  0  0  0
 16 17  1  0  0  0
 16 18  2  0  0  0
 15 18  1  0  0  0
 17 21  2  0  0  0
 18 19  1  0  0  0
 19 24  1  0  0  0
 19 21  1  0  0  0
 20 23  1  0  0  0
 20 22  2  0  0  0
 21 22  1  0  0  0
 23 24  2  0  0  0
 12 13  1  0  0  0
 12 14  1  0  0  0
M  END
>  <CNNaffinity>
8.10566

>  <CNNscore>
0.907306

>  <minimizedAffinity>
-7.29196

>  <minimizedRMSD>
0.64581

>  <molecular weight>
313.276

$$$$



 36 39  0  0  0  0  0  0  0  0999 V2000
    2.7009   -9.5589   46.3148 N   0  0  0  0  0  0  0  0  0  0  0  0
    2.3601  -10.2586   46.9178 H   0  0  0  0  0  0  0  0  0  0  0  0
    2.0804   -9.4528   45.0442 C   0  0  0  0  0  0  0  0  0  0  0  0
    1.1876   -8.1986   44.9784 C   0  0  0  0  0  0  0  0  0  0  0  0
   -0.0043   -8.3189   45.9327 C   0  0  0  0  0  0  0  0  0  0  0  0
   -0.7224   -9.5753   45.6855 N   0  0  0  0  0  0  0  0  0  0  0  0
   -2.1589   -9.6180   45.7581 C   0  0  0  0  0  0  0  0  0  0  0  0
   -2.7153  -10.4931   46.4766 O   0  0  0  0  0  0  0  0  0  0  0  0
    0.0477  -10.8230   45.7076 C   0  0  0  0  0  0  0  0  0  0  0  0
    1.2495  -10.7143   44.7613 C   0  0  0  0  0  0  0  0  0  0  0  0
   -2.9972   -8.6644   44.9955 C   0  0  0  0  0  0  0  0  0  0  0  0
   -2.5688   -8.1700   43.7517 C   0  0  0  0  0  0  0  0  0  0  0  0
   -3.3676   -7.2781   43.0309 C   0  0  0  0  0  0  0  0  0  0  0  0
   -4.6111   -6.8779   43.5352 C   0  0  0  0  0  0  0  0  0  0  0  0
   -5.0465   -7.3714   44.7719 C   0  0  0  0  0  0  0  0  0  0  0  0
   -4.2491   -8.2644   45.4942 C   0  0  0  0  0  0  0  0  0  0  0  0
   -5.6045   -5.7417   42.6291 S   0  0  0  0  0  0  0  0  0  0  0  0
   -5.0938   -4.0805   43.0063 C   0  0  0  0  0  0  0  0  0  0  0  0
   -7.0511   -5.9166   42.9978 O   0  0  0  0  0  0  0  0  0  0  0  0
   -5.4482   -5.9960   41.1559 O   0  0  0  0  0  0  0  0  0  0  0  0
    3.7492   -8.7678   46.7960 C   0  0  0  0  0  0  0  0  0  0  0  0
    4.4737   -7.5220   45.8647 S   0  0  0  0  0  0  0  0  0  0  0  0
    4.3065   -8.8854   47.9828 N   0  0  0  0  0  0  0  0  0  0  0  0
    5.3663   -8.0522   48.1739 N   0  0  0  0  0  0  0  0  0  0  0  0
    5.5704   -7.2838   47.1519 C   0  0  0  0  0  0  0  0  0  0  0  0
    7.9376   -7.4875   45.5458 O   0  0  0  0  0  0  0  0  0  0  0  0
    6.5754   -6.4046   46.9819 N   0  0  0  0  0  0  0  0  0  0  0  0
    7.7017   -6.5126   46.2176 C   0  0  0  0  0  0  0  0  0  0  0  0
    6.4852   -5.5609   47.4812 H   0  0  0  0  0  0  0  0  0  0  0  0
    8.6136   -5.2986   46.2856 C   0  0  0  0  0  0  0  0  0  0  0  0
    7.8739   -3.9848   46.1799 C   0  0  0  0  0  0  0  0  0  0  0  0
    6.8614   -3.6670   47.0934 C   0  0  0  0  0  0  0  0  0  0  0  0
    6.1650   -2.4600   47.0016 C   0  0  0  0  0  0  0  0  0  0  0  0
    6.4659   -1.5556   45.9828 C   0  0  0  0  0  0  0  0  0  0  0  0
    7.4690   -1.8626   45.0620 C   0  0  0  0  0  0  0  0  0  0  0  0
    8.1666   -3.0676   45.1626 C   0  0  0  0  0  0  0  0  0  0  0  0
  1 21  1  0  0  0
 26 28  2  0  0  0
 22 21  1  0  0  0
 22 25  1  0  0  0
 23 24  1  0  0  0
 23 21  2  0  0  0
 24 25  2  0  0  0
 27 28  1  0  0  0
 27 25  1  0  0  0
 28 30  1  0  0  0
 30 31  1  0  0  0
 31 32  2  0  0  0
 31 36  1  0  0  0
 32 33  1  0  0  0
 33 34  2  0  0  0
 34 35  1  0  0  0
 35 36  2  0  0  0
  3  4  1  0  0  0
  4  5  1  0  0  0
  5  6  1  0  0  0
  6  7  1  0  0  0
  7  8  2  0  0  0
  7 11  1  0  0  0
 11 12  2  0  0  0
 12 13  1  0  0  0
 13 14  2  0  0  0
 14 17  1  0  0  0
 17 18  1  0  0  0
 17 19  2  0  0  0
 17 20  2  0  0  0
 14 15  1  0  0  0
 15 16  2  0  0  0
  6  9  1  0  0  0
  9 10  1  0  0  0
 10  3  1  0  0  0
 16 11  1  0  0  0
  1  3  1  0  0  0
  1  2  1  0  0  0
 27 29  1  0  0  0
M  END
>  <CNNaffinity>
8.0978

>  <CNNscore>
0.600822

>  <minimizedAffinity>
2.80162

>  <minimizedRMSD>
1.6205

>  <molecular weight>
476.423

$$$$



 24 27  0  0  0  0  0  0  0  0999 V2000
    1.0052  -10.5969   45.5646 C   0  0  0  0  0  0  0  0  0  0  0  0
    2.7451   -8.7866   45.8595 N   0  0  0  0  0  0  0  0  0  0  0  0
   -0.0062   -9.4588   45.7902 C   0  0  0  0  0  0  0  0  0  0  0  0
    0.4500   -8.2707   44.9250 C   0  0  0  0  0  0  0  0  0  0  0  0
    1.7955   -7.7345   45.4357 C   0  0  0  0  0  0  0  0  0  0  0  0
    2.3891  -10.2021   46.0962 C   0  0  0  0  0  0  0  0  0  0  0  0
    6.0955   -7.3852   46.8198 C   0  0  0  0  0  0  0  0  0  0  0  0
    4.9927   -7.2606   45.5219 S   0  0  0  0  0  0  0  0  0  0  0  0
    4.4472   -8.6445   47.5615 N   0  0  0  0  0  0  0  0  0  0  0  0
    5.6843   -8.1274   47.7979 N   0  0  0  0  0  0  0  0  0  0  0  0
    3.9562   -8.3226   46.3832 C   0  0  0  0  0  0  0  0  0  0  0  0
    7.2968   -6.7903   46.6982 N   0  0  0  0  0  0  0  0  0  0  0  0
    7.6567   -6.0680   47.7574 C   0  0  0  0  0  0  0  0  0  0  0  0
    7.8603   -6.8812   45.8960 H   0  0  0  0  0  0  0  0  0  0  0  0
   -1.4468   -9.8935   45.4684 C   0  0  0  0  0  0  0  0  0  0  0  0
   -1.5843   -8.7415   43.2922 N   0  0  0  0  0  0  0  0  0  0  0  0
   -2.4249   -7.9908   42.5720 N   0  0  0  0  0  0  0  0  0  0  0  0
   -2.1523   -9.0399   44.4480 C   0  0  0  0  0  0  0  0  0  0  0  0
   -3.3938   -8.4861   44.5040 N   0  0  0  0  0  0  0  0  0  0  0  0
   -5.7235   -7.1063   43.8830 N   0  0  0  0  0  0  0  0  0  0  0  0
   -3.5139   -7.8425   43.3077 C   0  0  0  0  0  0  0  0  0  0  0  0
   -4.7440   -7.1370   43.0265 C   0  0  0  0  0  0  0  0  0  0  0  0
   -5.5525   -7.7821   45.0954 C   0  0  0  0  0  0  0  0  0  0  0  0
   -4.4260   -8.4716   45.4409 C   0  0  0  0  0  0  0  0  0  0  0  0
  1  3  1  0  0  0
  1  6  1  0  0  0
  2  6  1  0  0  0
  2 11  1  0  0  0
  2  5  1  0  0  0
  8 11  1  0  0  0
  8  7  1  0  0  0
  3  4  1  0  0  0
  3 15  1  0  0  0
  9 10  1  0  0  0
  9 11  2  0  0  0
  4  5  1  0  0  0
 10  7  2  0  0  0
 12  7  1  0  0  0
 16 17  1  0  0  0
 16 18  2  0  0  0
 15 18  1  0  0  0
 17 21  2  0  0  0
 18 19  1  0  0  0
 19 24  1  0  0  0
 19 21  1  0  0  0
 20 23  1  0  0  0
 20 22  2  0  0  0
 21 22  1  0  0  0
 23 24  2  0  0  0
 12 13  1  0  0  0
 12 14  1  0  0  0
M  END
>  <CNNaffinity>
8.09335

>  <CNNscore>
0.899736

>  <minimizedAffinity>
-5.94326

>  <minimizedRMSD>
0.784

>  <molecular weight>
313.276

$$$$



 39 42  0  0  0  0  0  0  0  0999 V2000
    2.2649   -9.8268   45.9462 C   0  0  0  0  0  0  0  0  0  0  0  0
    1.3045  -10.2718   44.8321 C   0  0  0  0  0  0  0  0  0  0  0  0
    0.4812   -9.0924   44.3053 C   0  0  0  0  0  0  0  0  0  0  0  0
   -0.2013   -8.4249   45.4247 N   0  0  0  0  0  0  0  0  0  0  0  0
   -1.6365   -8.2350   45.4830 C   0  0  0  0  0  0  0  0  0  0  0  0
   -2.1264   -7.4367   46.3278 O   0  0  0  0  0  0  0  0  0  0  0  0
    0.6608   -7.9424   46.5142 C   0  0  0  0  0  0  0  0  0  0  0  0
    1.4947   -9.1034   47.0678 C   0  0  0  0  0  0  0  0  0  0  0  0
    3.2655   -8.9730   45.3911 N   0  0  0  0  0  0  0  0  0  0  0  0
    3.2522   -8.7938   44.4231 H   0  0  0  0  0  0  0  0  0  0  0  0
    4.2640   -8.3817   46.1720 C   0  0  0  0  0  0  0  0  0  0  0  0
    5.3759   -7.2360   45.5436 S   0  0  0  0  0  0  0  0  0  0  0  0
    4.4807   -8.6334   47.4459 N   0  0  0  0  0  0  0  0  0  0  0  0
    5.5694   -7.9916   47.9523 N   0  0  0  0  0  0  0  0  0  0  0  0
    6.1359   -7.2283   47.0729 C   0  0  0  0  0  0  0  0  0  0  0  0
    8.7467   -7.6887   45.9791 O   0  0  0  0  0  0  0  0  0  0  0  0
    7.2700   -6.5185   47.2204 N   0  0  0  0  0  0  0  0  0  0  0  0
    8.5106   -6.7484   46.6985 C   0  0  0  0  0  0  0  0  0  0  0  0
    7.1939   -5.7170   47.7869 H   0  0  0  0  0  0  0  0  0  0  0  0
    9.5504   -5.7143   47.0977 C   0  0  0  0  0  0  0  0  0  0  0  0
    9.0254   -4.2971   47.0816 C   0  0  0  0  0  0  0  0  0  0  0  0
    7.8673   -3.9631   47.7943 C   0  0  0  0  0  0  0  0  0  0  0  0
    7.3674   -2.6592   47.7810 C   0  0  0  0  0  0  0  0  0  0  0  0
    8.0162   -1.6698   47.0415 C   0  0  0  0  0  0  0  0  0  0  0  0
    9.1683   -1.9906   46.3218 C   0  0  0  0  0  0  0  0  0  0  0  0
    9.6674   -3.2941   46.3442 C   0  0  0  0  0  0  0  0  0  0  0  0
   -2.5906   -8.9581   44.5665 C   0  0  0  0  0  0  0  0  0  0  0  0
   -3.1730   -8.0379   43.4788 C   0  0  0  0  0  0  0  0  0  0  0  0
   -4.1333   -6.9599   44.0075 C   0  0  0  0  0  0  0  0  0  0  0  0
   -5.6867   -7.6303   44.5939 S   0  0  0  0  0  0  0  0  0  0  0  0
   -6.1349   -8.7660   43.7167 O   0  0  0  0  0  0  0  0  0  0  0  0
   -5.5277   -8.1374   46.0004 O   0  0  0  0  0  0  0  0  0  0  0  0
   -6.9028   -6.3576   44.5594 C   0  0  0  0  0  0  0  0  0  0  0  0
   -7.4428   -5.9423   43.3336 C   0  0  0  0  0  0  0  0  0  0  0  0
   -8.4013   -4.9245   43.2966 C   0  0  0  0  0  0  0  0  0  0  0  0
   -8.8196   -4.3126   44.4818 C   0  0  0  0  0  0  0  0  0  0  0  0
   -9.7533   -3.3301   44.4465 F   0  0  0  0  0  0  0  0  0  0  0  0
   -8.2805   -4.7198   45.7063 C   0  0  0  0  0  0  0  0  0  0  0  0
   -7.3223   -5.7379   45.7467 C   0  0  0  0  0  0  0  0  0  0  0  0
  9 11  1  0  0  0
 16 18  2  0  0  0
 12 11  1  0  0  0
 12 15  1  0  0  0
 13 14  1  0  0  0
 13 11  2  0  0  0
 14 15  2  0  0  0
 17 18  1  0  0  0
 17 15  1  0  0  0
 18 20  1  0  0  0
 20 21  1  0  0  0
 21 22  2  0  0  0
 21 26  1  0  0  0
 22 23  1  0  0  0
 23 24  2  0  0  0
 24 25  1  0  0  0
 25 26  2  0  0  0
  1  2  1  0  0  0
  2  3  1  0  0  0
  3  4  1  0  0  0
  4  5  1  0  0  0
  5  6  2  0  0  0
  5 27  1  0  0  0
 27 28  1  0  0  0
 28 29  1  0  0  0
 29 30  1  0  0  0
 30 31  2  0  0  0
 30 32  2  0  0  0
 30 33  1  0  0  0
 33 34  2  0  0  0
 34 35  1  0  0  0
 35 36  2  0  0  0
 36 37  1  0  0  0
 36 38  1  0  0  0
 38 39  2  0  0  0
  4  7  1  0  0  0
  7  8  1  0  0  0
  8  1  1  0  0  0
 39 33  1  0  0  0
  9  1  1  0  0  0
  9 10  1  0  0  0
 17 19  1  0  0  0
M  END
>  <CNNaffinity>
8.0914

>  <CNNscore>
0.760058

>  <minimizedAffinity>
-4.84314

>  <minimizedRMSD>
1.29212

>  <molecular weight>
519.443

$$$$



 24 27  0  0  0  0  0  0  0  0999 V2000
    0.9115  -10.5745   45.5375 C   0  0  0  0  0  0  0  0  0  0  0  0
    2.6220   -8.7549   45.9310 N   0  0  0  0  0  0  0  0  0  0  0  0
   -0.1186   -9.4572   45.7822 C   0  0  0  0  0  0  0  0  0  0  0  0
    0.3396   -8.2340   44.9686 C   0  0  0  0  0  0  0  0  0  0  0  0
    1.6677   -7.7000   45.5250 C   0  0  0  0  0  0  0  0  0  0  0  0
    2.2793  -10.1821   46.1107 C   0  0  0  0  0  0  0  0  0  0  0  0
    5.9379   -7.3548   47.0060 C   0  0  0  0  0  0  0  0  0  0  0  0
    4.8676   -7.2089   45.6833 S   0  0  0  0  0  0  0  0  0  0  0  0
    4.2793   -8.6392   47.6786 N   0  0  0  0  0  0  0  0  0  0  0  0
    5.5067   -8.1201   47.9574 N   0  0  0  0  0  0  0  0  0  0  0  0
    3.8164   -8.2951   46.4952 C   0  0  0  0  0  0  0  0  0  0  0  0
    7.1381   -6.7504   46.9278 N   0  0  0  0  0  0  0  0  0  0  0  0
    8.1285   -7.7330   46.7179 C   0  0  0  0  0  0  0  0  0  0  0  0
    7.2984   -5.7821   47.0044 H   0  0  0  0  0  0  0  0  0  0  0  0
   -1.5469   -9.8976   45.4161 C   0  0  0  0  0  0  0  0  0  0  0  0
   -1.7485   -8.9633   43.1427 N   0  0  0  0  0  0  0  0  0  0  0  0
   -2.5401   -8.1620   42.4217 N   0  0  0  0  0  0  0  0  0  0  0  0
   -2.2235   -9.0475   44.3736 C   0  0  0  0  0  0  0  0  0  0  0  0
   -3.3526   -8.2960   44.4804 N   0  0  0  0  0  0  0  0  0  0  0  0
   -5.5005   -6.6247   43.9233 N   0  0  0  0  0  0  0  0  0  0  0  0
   -3.5057   -7.7651   43.2336 C   0  0  0  0  0  0  0  0  0  0  0  0
   -4.6380   -6.9005   42.9883 C   0  0  0  0  0  0  0  0  0  0  0  0
   -5.3006   -7.1939   45.1850 C   0  0  0  0  0  0  0  0  0  0  0  0
   -4.2604   -8.0195   45.5016 C   0  0  0  0  0  0  0  0  0  0  0  0
  1  3  1  0  0  0
  1  6  1  0  0  0
  2  6  1  0  0  0
  2 11  1  0  0  0
  2  5  1  0  0  0
  8 11  1  0  0  0
  8  7  1  0  0  0
  3  4  1  0  0  0
  3 15  1  0  0  0
  9 10  1  0  0  0
  9 11  2  0  0  0
  4  5  1  0  0  0
 10  7  2  0  0  0
 12  7  1  0  0  0
 16 17  1  0  0  0
 16 18  2  0  0  0
 15 18  1  0  0  0
 17 21  2  0  0  0
 18 19  1  0  0  0
 19 24  1  0  0  0
 19 21  1  0  0  0
 20 23  1  0  0  0
 20 22  2  0  0  0
 21 22  1  0  0  0
 23 24  2  0  0  0
 12 13  1  0  0  0
 12 14  1  0  0  0
M  END
>  <CNNaffinity>
8.07688

>  <CNNscore>
0.883983

>  <minimizedAffinity>
-6.9491

>  <minimizedRMSD>
0.5896

>  <molecular weight>
313.276

$$$$



 24 27  0  0  0  0  0  0  0  0999 V2000
    1.0517  -10.6061   45.7648 C   0  0  0  0  0  0  0  0  0  0  0  0
    2.8332   -8.8182   45.9095 N   0  0  0  0  0  0  0  0  0  0  0  0
    0.0711   -9.4204   45.7232 C   0  0  0  0  0  0  0  0  0  0  0  0
    0.6381   -8.4000   44.7205 C   0  0  0  0  0  0  0  0  0  0  0  0
    1.9606   -7.8239   45.2477 C   0  0  0  0  0  0  0  0  0  0  0  0
    2.4051  -10.1671   46.3382 C   0  0  0  0  0  0  0  0  0  0  0  0
    6.1577   -7.3805   46.9053 C   0  0  0  0  0  0  0  0  0  0  0  0
    5.1761   -7.4597   45.5102 S   0  0  0  0  0  0  0  0  0  0  0  0
    4.3906   -8.4231   47.7074 N   0  0  0  0  0  0  0  0  0  0  0  0
    5.6281   -7.9144   47.9595 N   0  0  0  0  0  0  0  0  0  0  0  0
    4.0179   -8.3077   46.4501 C   0  0  0  0  0  0  0  0  0  0  0  0
    7.3938   -6.8602   46.7894 N   0  0  0  0  0  0  0  0  0  0  0  0
    7.3709   -5.4895   47.0620 C   0  0  0  0  0  0  0  0  0  0  0  0
    8.1991   -7.3722   46.5473 H   0  0  0  0  0  0  0  0  0  0  0  0
   -1.3565   -9.8634   45.3579 C   0  0  0  0  0  0  0  0  0  0  0  0
   -1.6084   -8.9661   43.0746 N   0  0  0  0  0  0  0  0  0  0  0  0
   -2.3957   -8.1488   42.3668 N   0  0  0  0  0  0  0  0  0  0  0  0
   -2.0393   -9.0080   44.3237 C   0  0  0  0  0  0  0  0  0  0  0  0
   -3.1343   -8.2115   44.4566 N   0  0  0  0  0  0  0  0  0  0  0  0
   -5.2368   -6.4694   43.9448 N   0  0  0  0  0  0  0  0  0  0  0  0
   -3.3141   -7.6992   43.2056 C   0  0  0  0  0  0  0  0  0  0  0  0
   -4.4213   -6.7964   42.9844 C   0  0  0  0  0  0  0  0  0  0  0  0
   -5.0111   -7.0215   45.2097 C   0  0  0  0  0  0  0  0  0  0  0  0
   -3.9917   -7.8804   45.5048 C   0  0  0  0  0  0  0  0  0  0  0  0
  1  3  1  0  0  0
  1  6  1  0  0  0
  2  6  1  0  0  0
  2 11  1  0  0  0
  2  5  1  0  0  0
  8 11  1  0  0  0
  8  7  1  0  0  0
  3  4  1  0  0  0
  3 15  1  0  0  0
  9 10  1  0  0  0
  9 11  2  0  0  0
  4  5  1  0  0  0
 10  7  2  0  0  0
 12  7  1  0  0  0
 16 17  1  0  0  0
 16 18  2  0  0  0
 15 18  1  0  0  0
 17 21  2  0  0  0
 18 19  1  0  0  0
 19 24  1  0  0  0
 19 21  1  0  0  0
 20 23  1  0  0  0
 20 22  2  0  0  0
 21 22  1  0  0  0
 23 24  2  0  0  0
 12 13  1  0  0  0
 12 14  1  0  0  0
M  END
>  <CNNaffinity>
8.05666

>  <CNNscore>
0.87402

>  <minimizedAffinity>
-7.40919

>  <minimizedRMSD>
0.72218

>  <molecular weight>
313.276

$$$$



 34 37  0  0  0  0  0  0  0  0999 V2000
    2.8409   -8.7656   45.7283 N   0  0  0  0  0  0  0  0  0  0  0  0
    2.0869   -9.9930   46.1575 C   0  0  0  0  0  0  0  0  0  0  0  0
    0.8350   -9.6206   46.9604 C   0  0  0  0  0  0  0  0  0  0  0  0
    0.0620   -8.4246   46.3851 C   0  0  0  0  0  0  0  0  0  0  0  0
   -0.1254   -8.5496   44.9264 N   0  0  0  0  0  0  0  0  0  0  0  0
   -1.4233   -8.8475   44.3675 C   0  0  0  0  0  0  0  0  0  0  0  0
   -1.4908   -9.5587   43.3294 O   0  0  0  0  0  0  0  0  0  0  0  0
    1.0034   -8.4285   43.9801 C   0  0  0  0  0  0  0  0  0  0  0  0
    2.3262   -7.9487   44.6152 C   0  0  0  0  0  0  0  0  0  0  0  0
    3.9282   -8.3529   46.5054 C   0  0  0  0  0  0  0  0  0  0  0  0
    4.9508   -7.0517   46.0526 S   0  0  0  0  0  0  0  0  0  0  0  0
    4.3029   -8.9039   47.6408 N   0  0  0  0  0  0  0  0  0  0  0  0
    5.4453   -8.3715   48.1558 N   0  0  0  0  0  0  0  0  0  0  0  0
    5.8960   -7.3968   47.4324 C   0  0  0  0  0  0  0  0  0  0  0  0
    8.5076   -7.8499   46.3375 O   0  0  0  0  0  0  0  0  0  0  0  0
    7.0384   -6.7084   47.6139 N   0  0  0  0  0  0  0  0  0  0  0  0
    8.2792   -6.9348   47.0912 C   0  0  0  0  0  0  0  0  0  0  0  0
    6.9692   -5.9283   48.2105 H   0  0  0  0  0  0  0  0  0  0  0  0
    9.3300   -5.9309   47.5361 C   0  0  0  0  0  0  0  0  0  0  0  0
    8.9396   -4.4951   47.2709 C   0  0  0  0  0  0  0  0  0  0  0  0
    7.7285   -3.9892   47.7587 C   0  0  0  0  0  0  0  0  0  0  0  0
    7.3524   -2.6667   47.5136 C   0  0  0  0  0  0  0  0  0  0  0  0
    8.1817   -1.8321   46.7638 C   0  0  0  0  0  0  0  0  0  0  0  0
    9.3891   -2.3255   46.2667 C   0  0  0  0  0  0  0  0  0  0  0  0
    9.7632   -3.6463   46.5205 C   0  0  0  0  0  0  0  0  0  0  0  0
   -2.7032   -8.3398   45.0138 C   0  0  0  0  0  0  0  0  0  0  0  0
   -2.9511   -9.0036   46.3003 N   0  0  0  0  0  0  0  0  0  0  0  0
   -2.4845  -10.1929   46.7304 C   0  0  0  0  0  0  0  0  0  0  0  0
   -2.9453  -10.4808   47.9628 N   0  0  0  0  0  0  0  0  0  0  0  0
   -3.7130   -9.4040   48.2460 C   0  0  0  0  0  0  0  0  0  0  0  0
   -3.7279   -8.5024   47.2448 N   0  0  0  0  0  0  0  0  0  0  0  0
   -3.9700   -8.3943   44.1090 C   0  0  0  0  0  0  0  0  0  0  0  0
   -4.4510   -9.8184   43.7803 C   0  0  0  0  0  0  0  0  0  0  0  0
   -3.7921   -7.5698   42.8252 C   0  0  0  0  0  0  0  0  0  0  0  0
  1 10  1  0  0  0
 15 17  2  0  0  0
 11 10  1  0  0  0
 11 14  1  0  0  0
 12 13  1  0  0  0
 12 10  2  0  0  0
 13 14  2  0  0  0
 16 17  1  0  0  0
 16 14  1  0  0  0
 17 19  1  0  0  0
 19 20  1  0  0  0
 20 21  2  0  0  0
 20 25  1  0  0  0
 21 22  1  0  0  0
 22 23  2  0  0  0
 23 24  1  0  0  0
 24 25  2  0  0  0
  2  3  1  0  0  0
  3  4  1  0  0  0
  4  5  1  0  0  0
  5  6  1  0  0  0
  6  7  2  0  0  0
  6 26  1  0  0  0
 26 32  1  0  0  0
 32 33  1  0  0  0
 32 34  1  0  0  0
 26 27  1  0  0  0
 27 28  1  0  0  0
 28 29  2  0  0  0
 29 30  1  0  0  0
 30 31  2  0  0  0
  5  8  1  0  0  0
  8  9  1  0  0  0
 31 27  1  0  0  0
  1  2  1  0  0  0
  1  9  1  0  0  0
 16 18  1  0  0  0
M  END
>  <CNNaffinity>
8.04145

>  <CNNscore>
0.92121

>  <minimizedAffinity>
0.7168

>  <minimizedRMSD>
0.64397

>  <molecular weight>
441.361

$$$$



 39 43  0  0  0  0  0  0  0  0999 V2000
    2.9906   -9.1279   45.4210 N   0  0  0  0  0  0  0  0  0  0  0  0
    2.6187  -10.5643   45.6656 C   0  0  0  0  0  0  0  0  0  0  0  0
    1.3342  -10.6606   46.4915 C   0  0  0  0  0  0  0  0  0  0  0  0
    0.0724  -10.4572   45.6465 C   0  0  0  0  0  0  0  0  0  0  0  0
    0.0056   -9.0885   45.0806 N   0  0  0  0  0  0  0  0  0  0  0  0
    0.9349   -8.9431   43.9317 C   0  0  0  0  0  0  0  0  0  0  0  0
    2.2704   -8.3513   44.4005 C   0  0  0  0  0  0  0  0  0  0  0  0
    4.0043   -8.5671   46.2048 C   0  0  0  0  0  0  0  0  0  0  0  0
    4.9236   -7.2094   45.6993 S   0  0  0  0  0  0  0  0  0  0  0  0
    4.3808   -9.0063   47.3874 N   0  0  0  0  0  0  0  0  0  0  0  0
    5.4492   -8.3385   47.9036 N   0  0  0  0  0  0  0  0  0  0  0  0
    5.8395   -7.3755   47.1310 C   0  0  0  0  0  0  0  0  0  0  0  0
    8.4080   -7.4373   45.8568 O   0  0  0  0  0  0  0  0  0  0  0  0
    6.9074   -6.5745   47.3040 N   0  0  0  0  0  0  0  0  0  0  0  0
    8.1288   -6.6146   46.6952 C   0  0  0  0  0  0  0  0  0  0  0  0
    6.7908   -5.8551   47.9658 H   0  0  0  0  0  0  0  0  0  0  0  0
    9.0879   -5.5317   47.1614 C   0  0  0  0  0  0  0  0  0  0  0  0
    8.4726   -4.1513   47.1790 C   0  0  0  0  0  0  0  0  0  0  0  0
    7.3568   -3.8838   47.9815 C   0  0  0  0  0  0  0  0  0  0  0  0
    6.7742   -2.6147   48.0006 C   0  0  0  0  0  0  0  0  0  0  0  0
    7.2956   -1.5946   47.2044 C   0  0  0  0  0  0  0  0  0  0  0  0
    8.4042   -1.8494   46.3954 C   0  0  0  0  0  0  0  0  0  0  0  0
    8.9868   -3.1180   46.3854 C   0  0  0  0  0  0  0  0  0  0  0  0
   -1.3882   -8.7437   44.7105 C   0  0  0  0  0  0  0  0  0  0  0  0
   -2.1901   -8.3501   45.9585 C   0  0  0  0  0  0  0  0  0  0  0  0
   -3.4681   -7.6666   45.5737 C   0  0  0  0  0  0  0  0  0  0  0  0
   -3.6801   -6.4831   45.9538 O   0  0  0  0  0  0  0  0  0  0  0  0
   -4.4477   -8.3625   44.7898 N   0  0  0  0  0  0  0  0  0  0  0  0
   -4.2892   -9.3064   44.5592 H   0  0  0  0  0  0  0  0  0  0  0  0
   -5.6504   -7.7294   44.3307 C   0  0  0  0  0  0  0  0  0  0  0  0
   -6.8788   -8.3469   44.6025 C   0  0  0  0  0  0  0  0  0  0  0  0
   -8.0770   -7.7520   44.2064 C   0  0  0  0  0  0  0  0  0  0  0  0
   -8.0660   -6.5373   43.5213 C   0  0  0  0  0  0  0  0  0  0  0  0
   -6.8497   -5.9135   43.2089 C   0  0  0  0  0  0  0  0  0  0  0  0
   -6.8401   -4.7056   42.4942 C   0  0  0  0  0  0  0  0  0  0  0  0
   -5.6293   -4.0994   42.1543 C   0  0  0  0  0  0  0  0  0  0  0  0
   -4.4210   -4.6961   42.5153 C   0  0  0  0  0  0  0  0  0  0  0  0
   -4.4132   -5.8968   43.2293 C   0  0  0  0  0  0  0  0  0  0  0  0
   -5.6243   -6.5138   43.6032 C   0  0  0  0  0  0  0  0  0  0  0  0
  1  8  1  0  0  0
 13 15  2  0  0  0
  9  8  1  0  0  0
  9 12  1  0  0  0
 10 11  1  0  0  0
 10  8  2  0  0  0
 11 12  2  0  0  0
 14 15  1  0  0  0
 14 12  1  0  0  0
 15 17  1  0  0  0
 17 18  1  0  0  0
 18 19  2  0  0  0
 18 23  1  0  0  0
 19 20  1  0  0  0
 20 21  2  0  0  0
 21 22  1  0  0  0
 22 23  2  0  0  0
  2  3  1  0  0  0
  3  4  1  0  0  0
  4  5  1  0  0  0
  5 24  1  0  0  0
 24 25  1  0  0  0
 25 26  1  0  0  0
 26 27  2  0  0  0
 26 28  1  0  0  0
 28 30  1  0  0  0
 30 31  2  0  0  0
 31 32  1  0  0  0
 32 33  2  0  0  0
 33 34  1  0  0  0
 34 35  2  0  0  0
 35 36  1  0  0  0
 36 37  2  0  0  0
 37 38  1  0  0  0
 38 39  2  0  0  0
  5  6  1  0  0  0
  6  7  1  0  0  0
 39 30  1  0  0  0
 39 34  1  0  0  0
  1  2  1  0  0  0
  1  7  1  0  0  0
 14 16  1  0  0  0
 28 29  1  0  0  0
M  END
>  <CNNaffinity>
8.03123

>  <CNNscore>
0.862001

>  <minimizedAffinity>
-2.27791

>  <minimizedRMSD>
1.16332

>  <molecular weight>
486.419

$$$$



 31 34  0  0  0  0  0  0  0  0999 V2000
    3.8820   -8.9730   46.0756 C   0  0  0  0  0  0  0  0  0  0  0  0
    4.6972   -7.6042   45.4386 S   0  0  0  0  0  0  0  0  0  0  0  0
    3.9723   -9.0358   47.3874 N   0  0  0  0  0  0  0  0  0  0  0  0
    4.7439   -8.0537   47.9298 N   0  0  0  0  0  0  0  0  0  0  0  0
    5.1897   -7.2346   47.0314 C   0  0  0  0  0  0  0  0  0  0  0  0
    3.2216   -9.9037   45.2667 N   0  0  0  0  0  0  0  0  0  0  0  0
    2.9093  -11.2499   45.8644 C   0  0  0  0  0  0  0  0  0  0  0  0
    1.5625  -11.2203   46.5969 C   0  0  0  0  0  0  0  0  0  0  0  0
    0.4195  -10.7006   45.7142 C   0  0  0  0  0  0  0  0  0  0  0  0
    0.5851   -9.2463   45.4886 N   0  0  0  0  0  0  0  0  0  0  0  0
    1.2293   -8.8872   44.2038 C   0  0  0  0  0  0  0  0  0  0  0  0
    2.5788   -9.5990   43.9923 C   0  0  0  0  0  0  0  0  0  0  0  0
   -0.6357   -8.4538   45.7583 C   0  0  0  0  0  0  0  0  0  0  0  0
   -1.6095   -8.3658   44.5968 C   0  0  0  0  0  0  0  0  0  0  0  0
   -1.1890   -8.4421   43.4095 O   0  0  0  0  0  0  0  0  0  0  0  0
   -3.0231   -8.1954   44.8346 N   0  0  0  0  0  0  0  0  0  0  0  0
   -3.5934   -8.4619   46.1586 C   0  0  0  0  0  0  0  0  0  0  0  0
   -3.9239   -7.9388   43.7045 C   0  0  0  0  0  0  0  0  0  0  0  0
   -3.7167   -6.5785   43.0515 C   0  0  0  0  0  0  0  0  0  0  0  0
   -4.9259   -6.8156   43.9377 C   0  0  0  0  0  0  0  0  0  0  0  0
    8.0562   -7.1800   46.9612 O   0  0  0  0  0  0  0  0  0  0  0  0
    6.0374   -6.2055   47.2166 N   0  0  0  0  0  0  0  0  0  0  0  0
    7.4023   -6.1903   47.1855 C   0  0  0  0  0  0  0  0  0  0  0  0
    5.6112   -5.3375   47.4014 H   0  0  0  0  0  0  0  0  0  0  0  0
    8.0114   -4.8227   47.4477 C   0  0  0  0  0  0  0  0  0  0  0  0
    7.7268   -3.8187   46.3544 C   0  0  0  0  0  0  0  0  0  0  0  0
    6.4093   -3.5582   45.9580 C   0  0  0  0  0  0  0  0  0  0  0  0
    6.1335   -2.6388   44.9436 C   0  0  0  0  0  0  0  0  0  0  0  0
    7.1779   -1.9731   44.3012 C   0  0  0  0  0  0  0  0  0  0  0  0
    8.4963   -2.2278   44.6826 C   0  0  0  0  0  0  0  0  0  0  0  0
    8.7657   -3.1428   45.7020 C   0  0  0  0  0  0  0  0  0  0  0  0
  6  1  1  0  0  0
 21 23  2  0  0  0
  2  1  1  0  0  0
  2  5  1  0  0  0
  3  4  1  0  0  0
  3  1  2  0  0  0
  4  5  2  0  0  0
 22 23  1  0  0  0
 22  5  1  0  0  0
 23 25  1  0  0  0
 25 26  1  0  0  0
 26 27  2  0  0  0
 26 31  1  0  0  0
 27 28  1  0  0  0
 28 29  2  0  0  0
 29 30  1  0  0  0
 30 31  2  0  0  0
  7  8  1  0  0  0
  8  9  1  0  0  0
  9 10  1  0  0  0
 10 13  1  0  0  0
 13 14  1  0  0  0
 14 15  2  0  0  0
 14 16  1  0  0  0
 16 17  1  0  0  0
 16 18  1  0  0  0
 18 19  1  0  0  0
 19 20  1  0  0  0
 10 11  1  0  0  0
 11 12  1  0  0  0
 20 18  1  0  0  0
  6  7  1  0  0  0
  6 12  1  0  0  0
 22 24  1  0  0  0
M  END
>  <CNNaffinity>
8.0204

>  <CNNscore>
0.986814

>  <minimizedAffinity>
-2.54239

>  <minimizedRMSD>
2.53754

>  <molecular weight>
401.337

$$$$



 34 37  0  0  0  0  0  0  0  0999 V2000
    2.5334   -9.2871   45.9251 N   0  0  0  0  0  0  0  0  0  0  0  0
    2.2139  -10.6715   46.4045 C   0  0  0  0  0  0  0  0  0  0  0  0
    3.5797   -8.6151   46.5654 C   0  0  0  0  0  0  0  0  0  0  0  0
    4.3833   -7.2700   45.8662 S   0  0  0  0  0  0  0  0  0  0  0  0
    4.0762   -8.9297   47.7434 N   0  0  0  0  0  0  0  0  0  0  0  0
    5.1490   -8.1730   48.1041 N   0  0  0  0  0  0  0  0  0  0  0  0
    5.4236   -7.2673   47.2204 C   0  0  0  0  0  0  0  0  0  0  0  0
    7.9421   -7.4141   45.8565 O   0  0  0  0  0  0  0  0  0  0  0  0
    6.4604   -6.4088   47.2292 N   0  0  0  0  0  0  0  0  0  0  0  0
    7.6584   -6.4896   46.5792 C   0  0  0  0  0  0  0  0  0  0  0  0
    6.3368   -5.6058   47.7852 H   0  0  0  0  0  0  0  0  0  0  0  0
    8.5849   -5.3140   46.8422 C   0  0  0  0  0  0  0  0  0  0  0  0
    7.9427   -3.9718   46.5767 C   0  0  0  0  0  0  0  0  0  0  0  0
    6.7748   -3.5995   47.2535 C   0  0  0  0  0  0  0  0  0  0  0  0
    6.1672   -2.3657   47.0112 C   0  0  0  0  0  0  0  0  0  0  0  0
    6.7163   -1.4883   46.0756 C   0  0  0  0  0  0  0  0  0  0  0  0
    7.8771   -1.8494   45.3896 C   0  0  0  0  0  0  0  0  0  0  0  0
    8.4840   -3.0813   45.6408 C   0  0  0  0  0  0  0  0  0  0  0  0
    1.8076   -8.7723   44.7549 C   0  0  0  0  0  0  0  0  0  0  0  0
    0.8767   -7.6555   45.1525 C   0  0  0  0  0  0  0  0  0  0  0  0
    1.1264   -6.4868   44.7534 O   0  0  0  0  0  0  0  0  0  0  0  0
   -0.2676   -7.8690   45.9934 N   0  0  0  0  0  0  0  0  0  0  0  0
   -0.6122   -7.1007   46.5036 H   0  0  0  0  0  0  0  0  0  0  0  0
   -0.9556   -9.1508   46.1429 C   0  0  0  0  0  0  0  0  0  0  0  0
   -1.8225   -9.4635   44.9174 C   0  0  0  0  0  0  0  0  0  0  0  0
   -2.9209   -8.4548   44.7387 C   0  0  0  0  0  0  0  0  0  0  0  0
   -2.9519   -7.4274   43.8004 C   0  0  0  0  0  0  0  0  0  0  0  0
   -4.0919   -6.7100   43.9225 N   0  0  0  0  0  0  0  0  0  0  0  0
   -4.7823   -7.2773   44.9267 C   0  0  0  0  0  0  0  0  0  0  0  0
   -6.0272   -6.8897   45.4193 C   0  0  0  0  0  0  0  0  0  0  0  0
   -6.5758   -7.6351   46.4786 C   0  0  0  0  0  0  0  0  0  0  0  0
   -5.8777   -8.7408   47.0131 C   0  0  0  0  0  0  0  0  0  0  0  0
   -4.6236   -9.1112   46.4943 C   0  0  0  0  0  0  0  0  0  0  0  0
   -4.1013   -8.3481   45.4492 C   0  0  0  0  0  0  0  0  0  0  0  0
  1  3  1  0  0  0
  8 10  2  0  0  0
  4  3  1  0  0  0
  4  7  1  0  0  0
  5  6  1  0  0  0
  5  3  2  0  0  0
  6  7  2  0  0  0
  9 10  1  0  0  0
  9  7  1  0  0  0
 10 12  1  0  0  0
 12 13  1  0  0  0
 13 14  2  0  0  0
 13 18  1  0  0  0
 14 15  1  0  0  0
 15 16  2  0  0  0
 16 17  1  0  0  0
 17 18  2  0  0  0
 19 20  1  0  0  0
 20 21  2  0  0  0
 20 22  1  0  0  0
 22 24  1  0  0  0
 24 25  1  0  0  0
 25 26  1  0  0  0
 26 27  2  0  0  0
 27 28  1  0  0  0
 28 29  2  0  0  0
 29 30  1  0  0  0
 30 31  1  0  0  0
 31 32  2  0  0  0
 32 33  1  0  0  0
 33 34  2  0  0  0
 34 26  1  0  0  0
 34 29  1  0  0  0
  1  2  1  0  0  0
  1 19  1  0  0  0
  9 11  1  0  0  0
 22 23  1  0  0  0
M  END
>  <CNNaffinity>
7.9892

>  <CNNscore>
0.709618

>  <minimizedAffinity>
-0.08493

>  <minimizedRMSD>
1.95116

>  <molecular weight>
426.366

$$$$



 45 52  0  0  0  0  0  0  0  0999 V2000
    6.9850   -6.5488   47.2243 N   0  0  0  0  0  0  0  0  0  0  0  0
    9.0996   -4.7764   47.3896 N   0  0  0  0  0  0  0  0  0  0  0  0
    9.3626   -6.1989   47.6582 C   0  0  0  0  0  0  0  0  0  0  0  0
    8.0800   -6.9304   48.0639 C   0  0  0  0  0  0  0  0  0  0  0  0
    6.6361   -5.0636   47.3399 C   0  0  0  0  0  0  0  0  0  0  0  0
    7.8182   -4.2062   47.8337 C   0  0  0  0  0  0  0  0  0  0  0  0
   10.2133   -1.0097   44.7916 O   0  0  0  0  0  0  0  0  0  0  0  0
   10.6015   -2.0336   45.4129 C   0  0  0  0  0  0  0  0  0  0  0  0
    9.7041   -2.8378   46.0435 N   0  0  0  0  0  0  0  0  0  0  0  0
   10.0953   -3.9518   46.7392 C   0  0  0  0  0  0  0  0  0  0  0  0
   11.4293   -4.2747   46.8027 N   0  0  0  0  0  0  0  0  0  0  0  0
   12.3460   -3.4997   46.1576 C   0  0  0  0  0  0  0  0  0  0  0  0
   13.7416   -3.6956   46.1397 C   0  0  0  0  0  0  0  0  0  0  0  0
   14.4097   -2.6809   45.4459 C   0  0  0  0  0  0  0  0  0  0  0  0
   13.2802   -1.5748   44.8456 S   0  0  0  0  0  0  0  0  0  0  0  0
   11.9440   -2.3710   45.4751 C   0  0  0  0  0  0  0  0  0  0  0  0
    8.7465   -2.6133   45.9989 H   0  0  0  0  0  0  0  0  0  0  0  0
   14.4510   -4.8389   46.7518 C   0  0  0  0  0  0  0  0  0  0  0  0
   15.5507   -4.6151   47.5971 C   0  0  0  0  0  0  0  0  0  0  0  0
   16.2332   -5.6939   48.1680 C   0  0  0  0  0  0  0  0  0  0  0  0
   15.8311   -7.0043   47.8906 C   0  0  0  0  0  0  0  0  0  0  0  0
   16.7607   -8.4765   48.6746 Br  0  0  0  0  0  0  0  0  0  0  0  0
   14.7502   -7.2359   47.0333 C   0  0  0  0  0  0  0  0  0  0  0  0
   14.0651   -6.1593   46.4621 C   0  0  0  0  0  0  0  0  0  0  0  0
    5.9244   -7.3769   47.1874 C   0  0  0  0  0  0  0  0  0  0  0  0
    4.7344   -7.1192   45.9900 S   0  0  0  0  0  0  0  0  0  0  0  0
    4.5886   -9.0877   47.5636 N   0  0  0  0  0  0  0  0  0  0  0  0
    5.7222   -8.4241   47.9217 N   0  0  0  0  0  0  0  0  0  0  0  0
    3.9703   -8.5576   46.5294 C   0  0  0  0  0  0  0  0  0  0  0  0
    1.2499  -11.0032   45.4479 C   0  0  0  0  0  0  0  0  0  0  0  0
    2.8335   -9.0876   45.9103 N   0  0  0  0  0  0  0  0  0  0  0  0
    0.1476   -9.9445   45.6309 C   0  0  0  0  0  0  0  0  0  0  0  0
    0.5768   -8.7023   44.8305 C   0  0  0  0  0  0  0  0  0  0  0  0
    1.8432   -8.0908   45.4478 C   0  0  0  0  0  0  0  0  0  0  0  0
    2.5629  -10.5307   46.0852 C   0  0  0  0  0  0  0  0  0  0  0  0
   -1.2334  -10.4671   45.1978 C   0  0  0  0  0  0  0  0  0  0  0  0
   -1.9374   -9.0346   43.3178 N   0  0  0  0  0  0  0  0  0  0  0  0
   -2.8741   -8.1348   42.9991 N   0  0  0  0  0  0  0  0  0  0  0  0
   -2.1291   -9.4367   44.5625 C   0  0  0  0  0  0  0  0  0  0  0  0
   -3.2123   -8.8019   45.0865 N   0  0  0  0  0  0  0  0  0  0  0  0
   -5.4421   -7.1796   45.4229 N   0  0  0  0  0  0  0  0  0  0  0  0
   -3.6400   -8.0009   44.0690 C   0  0  0  0  0  0  0  0  0  0  0  0
   -4.8047   -7.1731   44.2881 C   0  0  0  0  0  0  0  0  0  0  0  0
   -4.9652   -8.0184   46.4352 C   0  0  0  0  0  0  0  0  0  0  0  0
   -3.8750   -8.8308   46.3127 C   0  0  0  0  0  0  0  0  0  0  0  0
 30 32  1  0  0  0
 30 35  1  0  0  0
 31 35  1  0  0  0
 31 29  1  0  0  0
 31 34  1  0  0  0
 26 29  1  0  0  0
 26 25  1  0  0  0
 32 33  1  0  0  0
 32 36  1  0  0  0
 27 28  1  0  0  0
 27 29  2  0  0  0
 33 34  1  0  0  0
 28 25  2  0  0  0
  1 25  1  0  0  0
 37 38  1  0  0  0
 37 39  2  0  0  0
 36 39  1  0  0  0
 38 42  2  0  0  0
 39 40  1  0  0  0
 40 45  1  0  0  0
 40 42  1  0  0  0
 41 44  1  0  0  0
 41 43  2  0  0  0
 42 43  1  0  0  0
 44 45  2  0  0  0
  7  8  2  0  0  0
  8  9  1  0  0  0
  9 10  1  0  0  0
 10  2  1  0  0  0
  2  3  1  0  0  0
  3  4  1  0  0  0
  5  6  1  0  0  0
 10 11  2  0  0  0
 11 12  1  0  0  0
 12 13  1  0  0  0
 13 18  1  0  0  0
 18 19  2  0  0  0
 19 20  1  0  0  0
 20 21  2  0  0  0
 21 22  1  0  0  0
 21 23  1  0  0  0
 23 24  2  0  0  0
 13 14  2  0  0  0
 14 15  1  0  0  0
 15 16  1  0  0  0
 16  8  1  0  0  0
  6  2  1  0  0  0
 16 12  2  0  0  0
 24 18  1  0  0  0
  1  4  1  0  0  0
  1  5  1  0  0  0
  9 17  1  0  0  0
M  END
>  <CNNaffinity>
7.98757

>  <CNNscore>
0.516652

>  <minimizedAffinity>
-2.87323

>  <minimizedRMSD>
1.53041

>  <molecular weight>
663.425

$$$$



 38 42  0  0  0  0  0  0  0  0999 V2000
    2.8023   -9.3202   45.3176 N   0  0  0  0  0  0  0  0  0  0  0  0
    1.4087   -8.9069   45.3279 C   0  0  0  0  0  0  0  0  0  0  0  0
    0.4854   -9.7636   45.4015 O   0  0  0  0  0  0  0  0  0  0  0  0
    3.6941   -8.6022   46.1211 C   0  0  0  0  0  0  0  0  0  0  0  0
    4.8766   -7.5405   45.4741 S   0  0  0  0  0  0  0  0  0  0  0  0
    3.7480   -8.6601   47.4352 N   0  0  0  0  0  0  0  0  0  0  0  0
    4.7640   -7.9306   47.9732 N   0  0  0  0  0  0  0  0  0  0  0  0
    5.4371   -7.2943   47.0683 C   0  0  0  0  0  0  0  0  0  0  0  0
    8.1968   -7.9850   46.7049 O   0  0  0  0  0  0  0  0  0  0  0  0
    6.5436   -6.5495   47.2497 N   0  0  0  0  0  0  0  0  0  0  0  0
    7.8549   -6.8889   47.0781 C   0  0  0  0  0  0  0  0  0  0  0  0
    6.3841   -5.6255   47.5499 H   0  0  0  0  0  0  0  0  0  0  0  0
    8.8301   -5.7655   47.3889 C   0  0  0  0  0  0  0  0  0  0  0  0
    8.3484   -4.4080   46.9310 C   0  0  0  0  0  0  0  0  0  0  0  0
    7.1473   -3.8807   47.4208 C   0  0  0  0  0  0  0  0  0  0  0  0
    6.6873   -2.6313   46.9995 C   0  0  0  0  0  0  0  0  0  0  0  0
    7.4207   -1.8941   46.0692 C   0  0  0  0  0  0  0  0  0  0  0  0
    8.6169   -2.4106   45.5686 C   0  0  0  0  0  0  0  0  0  0  0  0
    9.0754   -3.6572   45.9984 C   0  0  0  0  0  0  0  0  0  0  0  0
    3.1080  -10.7185   44.8754 C   0  0  0  0  0  0  0  0  0  0  0  0
    3.4618  -10.7509   43.3873 C   0  0  0  0  0  0  0  0  0  0  0  0
    4.9563  -10.4642   43.3115 C   0  0  0  0  0  0  0  0  0  0  0  0
    5.5416  -10.8523   44.6671 C   0  0  0  0  0  0  0  0  0  0  0  0
    4.3692  -11.3002   45.5329 C   0  0  0  0  0  0  0  0  0  0  0  0
    1.0562   -7.4456   45.3076 C   0  0  0  0  0  0  0  0  0  0  0  0
   -0.6308   -7.1960   44.6556 S   0  0  0  0  0  0  0  0  0  0  0  0
   -0.5927   -5.4202   44.8866 C   0  0  0  0  0  0  0  0  0  0  0  0
   -1.2223   -4.8317   45.9818 C   0  0  0  0  0  0  0  0  0  0  0  0
   -1.1940   -3.4451   46.1183 C   0  0  0  0  0  0  0  0  0  0  0  0
   -0.5316   -2.6692   45.1517 C   0  0  0  0  0  0  0  0  0  0  0  0
    0.0602   -3.3046   44.1021 N   0  0  0  0  0  0  0  0  0  0  0  0
    0.0313   -4.6327   43.9731 N   0  0  0  0  0  0  0  0  0  0  0  0
   -0.4789   -1.1863   45.2324 C   0  0  0  0  0  0  0  0  0  0  0  0
   -0.5316   -0.5139   46.4711 C   0  0  0  0  0  0  0  0  0  0  0  0
   -0.4808    0.8831   46.5215 C   0  0  0  0  0  0  0  0  0  0  0  0
   -0.3722    1.6251   45.3427 C   0  0  0  0  0  0  0  0  0  0  0  0
   -0.3091    0.9715   44.1106 C   0  0  0  0  0  0  0  0  0  0  0  0
   -0.3560   -0.4249   44.0534 C   0  0  0  0  0  0  0  0  0  0  0  0
  1  4  1  0  0  0
  9 11  2  0  0  0
  5  4  1  0  0  0
  5  8  1  0  0  0
  6  7  1  0  0  0
  6  4  2  0  0  0
  7  8  2  0  0  0
 10 11  1  0  0  0
 10  8  1  0  0  0
 11 13  1  0  0  0
 13 14  1  0  0  0
 14 15  2  0  0  0
 14 19  1  0  0  0
 15 16  1  0  0  0
 16 17  2  0  0  0
 17 18  1  0  0  0
 18 19  2  0  0  0
  2  3  2  0  0  0
  2 25  1  0  0  0
 25 26  1  0  0  0
 26 27  1  0  0  0
 27 28  2  0  0  0
 28 29  1  0  0  0
 29 30  2  0  0  0
 30 33  1  0  0  0
 33 34  2  0  0  0
 34 35  1  0  0  0
 35 36  2  0  0  0
 36 37  1  0  0  0
 37 38  2  0  0  0
 30 31  1  0  0  0
 31 32  2  0  0  0
 20 21  1  0  0  0
 21 22  1  0  0  0
 22 23  1  0  0  0
 23 24  1  0  0  0
 32 27  1  0  0  0
 24 20  1  0  0  0
 38 33  1  0  0  0
  1  2  1  0  0  0
  1 20  1  0  0  0
 10 12  1  0  0  0
M  END
>  <CNNaffinity>
7.98622

>  <CNNscore>
0.598477

>  <minimizedAffinity>
14.9373

>  <minimizedRMSD>
1.50449

>  <molecular weight>
505.466

$$$$



 40 46  0  0  0  0  0  0  0  0999 V2000
    5.5712   -7.5044   47.6908 C   0  0  0  0  0  0  0  0  0  0  0  0
    4.6778   -7.3248   46.2465 S   0  0  0  0  0  0  0  0  0  0  0  0
    3.9326   -8.9339   48.0433 N   0  0  0  0  0  0  0  0  0  0  0  0
    5.0728   -8.3637   48.5213 N   0  0  0  0  0  0  0  0  0  0  0  0
    3.6073   -8.5307   46.8331 C   0  0  0  0  0  0  0  0  0  0  0  0
    0.7805  -10.7754   45.5995 C   0  0  0  0  0  0  0  0  0  0  0  0
    2.5333   -9.0184   46.0814 N   0  0  0  0  0  0  0  0  0  0  0  0
   -0.1575   -9.5731   45.3899 C   0  0  0  0  0  0  0  0  0  0  0  0
    0.5986   -8.5570   44.5158 C   0  0  0  0  0  0  0  0  0  0  0  0
    1.8115   -8.0060   45.2800 C   0  0  0  0  0  0  0  0  0  0  0  0
    2.0134  -10.3622   46.4136 C   0  0  0  0  0  0  0  0  0  0  0  0
   -1.5013   -9.9902   44.7668 C   0  0  0  0  0  0  0  0  0  0  0  0
   -1.7759   -8.6415   42.7204 N   0  0  0  0  0  0  0  0  0  0  0  0
   -2.5501   -7.6742   42.2169 N   0  0  0  0  0  0  0  0  0  0  0  0
   -2.1776   -8.9226   43.9481 C   0  0  0  0  0  0  0  0  0  0  0  0
   -3.2395   -8.1366   44.2730 N   0  0  0  0  0  0  0  0  0  0  0  0
   -5.2895   -6.2636   44.1887 N   0  0  0  0  0  0  0  0  0  0  0  0
   -3.4311   -7.3761   43.1572 C   0  0  0  0  0  0  0  0  0  0  0  0
   -4.5099   -6.4139   43.1573 C   0  0  0  0  0  0  0  0  0  0  0  0
   -5.0532   -7.0672   45.3087 C   0  0  0  0  0  0  0  0  0  0  0  0
   -4.0587   -7.9987   45.3925 C   0  0  0  0  0  0  0  0  0  0  0  0
    6.7258   -6.8242   47.8178 N   0  0  0  0  0  0  0  0  0  0  0  0
    6.9108   -6.0765   46.5704 O   0  0  0  0  0  0  0  0  0  0  0  0
    8.4471   -4.9666   46.3198 O   0  0  0  0  0  0  0  0  0  0  0  0
    6.0315   -3.7679   44.2127 N   0  0  0  0  0  0  0  0  0  0  0  0
    5.3391   -2.8773   44.9778 C   0  0  0  0  0  0  0  0  0  0  0  0
    5.8198   -1.6103   44.8974 N   0  0  0  0  0  0  0  0  0  0  0  0
    6.8495   -1.7268   44.0429 C   0  0  0  0  0  0  0  0  0  0  0  0
    7.7004   -0.7127   43.6115 C   0  0  0  0  0  0  0  0  0  0  0  0
    8.7287   -1.0554   42.7170 C   0  0  0  0  0  0  0  0  0  0  0  0
    8.8792   -2.3897   42.2816 C   0  0  0  0  0  0  0  0  0  0  0  0
    8.0020   -3.3927   42.7343 C   0  0  0  0  0  0  0  0  0  0  0  0
    6.9867   -3.0210   43.6238 C   0  0  0  0  0  0  0  0  0  0  0  0
    4.1656   -3.2175   45.8547 C   0  0  0  0  0  0  0  0  0  0  0  0
    3.0054   -2.3738   45.5074 N   0  0  0  0  0  0  0  0  0  0  0  0
    2.3972   -2.8053   44.2315 C   0  0  0  0  0  0  0  0  0  0  0  0
    1.0900   -2.0330   43.9582 C   0  0  0  0  0  0  0  0  0  0  0  0
    0.8909   -1.0033   44.9063 O   0  0  0  0  0  0  0  0  0  0  0  0
    0.7672   -1.5651   46.2003 C   0  0  0  0  0  0  0  0  0  0  0  0
    1.9947   -2.4209   46.5793 C   0  0  0  0  0  0  0  0  0  0  0  0
  6  8  1  0  0  0
  6 11  1  0  0  0
  7 11  1  0  0  0
  7  5  1  0  0  0
  7 10  1  0  0  0
  2  5  1  0  0  0
  2  1  1  0  0  0
  8  9  1  0  0  0
  8 12  1  0  0  0
  3  4  1  0  0  0
  3  5  2  0  0  0
  9 10  1  0  0  0
  4  1  2  0  0  0
 22  1  1  0  0  0
 13 14  1  0  0  0
 13 15  2  0  0  0
 12 15  1  0  0  0
 14 18  2  0  0  0
 15 16  1  0  0  0
 16 21  1  0  0  0
 16 18  1  0  0  0
 17 20  1  0  0  0
 17 19  2  0  0  0
 18 19  1  0  0  0
 20 21  2  0  0  0
 25 26  1  0  0  0
 26 34  1  0  0  0
 34 35  1  0  0  0
 35 36  1  0  0  0
 36 37  1  0  0  0
 37 38  1  0  0  0
 38 39  1  0  0  0
 39 40  1  0  0  0
 26 27  2  0  0  0
 27 28  1  0  0  0
 28 29  2  0  0  0
 29 30  1  0  0  0
 30 31  2  0  0  0
 31 32  1  0  0  0
 32 33  2  0  0  0
 33 25  1  0  0  0
 40 35  1  0  0  0
 33 28  1  0  0  0
 22 23  2  0  0  0
 22 24  2  0  0  0
 22 25  1  0  0  0
M  END
>  <CNNaffinity>
7.96191

>  <CNNscore>
0.178028

>  <minimizedAffinity>
4.23529

>  <minimizedRMSD>
0.37508

>  <molecular weight>
534.404

$$$$



 35 38  0  0  0  0  0  0  0  0999 V2000
    2.5192   -8.9142   45.1345 N   0  0  0  0  0  0  0  0  0  0  0  0
    2.4014   -8.4444   44.2774 H   0  0  0  0  0  0  0  0  0  0  0  0
    1.6411   -9.9844   45.4694 C   0  0  0  0  0  0  0  0  0  0  0  0
    0.6266   -9.6016   46.4994 C   0  0  0  0  0  0  0  0  0  0  0  0
   -0.5351   -9.6464   45.5938 N   0  0  0  0  0  0  0  0  0  0  0  0
   -1.9425   -9.4300   45.6859 C   0  0  0  0  0  0  0  0  0  0  0  0
   -2.4545   -9.1301   46.7973 O   0  0  0  0  0  0  0  0  0  0  0  0
    0.4521  -10.0296   44.5668 C   0  0  0  0  0  0  0  0  0  0  0  0
   -2.8102   -9.5281   44.4686 C   0  0  0  0  0  0  0  0  0  0  0  0
   -3.3912   -8.1817   44.1280 C   0  0  0  0  0  0  0  0  0  0  0  0
   -2.5672   -7.1642   43.6200 C   0  0  0  0  0  0  0  0  0  0  0  0
   -3.1027   -5.9116   43.3068 C   0  0  0  0  0  0  0  0  0  0  0  0
   -4.4669   -5.6590   43.5022 C   0  0  0  0  0  0  0  0  0  0  0  0
   -5.2942   -6.6745   43.9995 C   0  0  0  0  0  0  0  0  0  0  0  0
   -4.7604   -7.9280   44.3128 C   0  0  0  0  0  0  0  0  0  0  0  0
   -5.1455   -4.0873   43.0934 S   0  0  0  0  0  0  0  0  0  0  0  0
   -5.7554   -4.1237   41.4235 C   0  0  0  0  0  0  0  0  0  0  0  0
   -6.2715   -3.7599   44.0341 O   0  0  0  0  0  0  0  0  0  0  0  0
   -4.0886   -3.0259   43.2188 O   0  0  0  0  0  0  0  0  0  0  0  0
    3.5453   -8.5164   45.9979 C   0  0  0  0  0  0  0  0  0  0  0  0
    4.6569   -7.2700   45.6046 S   0  0  0  0  0  0  0  0  0  0  0  0
    3.7906   -9.0427   47.1793 N   0  0  0  0  0  0  0  0  0  0  0  0
    4.9007   -8.5363   47.7835 N   0  0  0  0  0  0  0  0  0  0  0  0
    5.4554   -7.6036   47.0769 C   0  0  0  0  0  0  0  0  0  0  0  0
    8.0663   -7.9387   45.9387 O   0  0  0  0  0  0  0  0  0  0  0  0
    6.6027   -6.9526   47.3445 N   0  0  0  0  0  0  0  0  0  0  0  0
    7.8431   -7.1224   46.7998 C   0  0  0  0  0  0  0  0  0  0  0  0
    6.5381   -6.2520   48.0331 H   0  0  0  0  0  0  0  0  0  0  0  0
    8.9006   -6.1902   47.3678 C   0  0  0  0  0  0  0  0  0  0  0  0
    8.5129   -4.7308   47.3020 C   0  0  0  0  0  0  0  0  0  0  0  0
    7.3427   -4.2805   47.9253 C   0  0  0  0  0  0  0  0  0  0  0  0
    6.9692   -2.9362   47.8650 C   0  0  0  0  0  0  0  0  0  0  0  0
    7.7593   -2.0222   47.1672 C   0  0  0  0  0  0  0  0  0  0  0  0
    8.9254   -2.4589   46.5364 C   0  0  0  0  0  0  0  0  0  0  0  0
    9.2975   -3.8027   46.6057 C   0  0  0  0  0  0  0  0  0  0  0  0
  1 20  1  0  0  0
 25 27  2  0  0  0
 21 20  1  0  0  0
 21 24  1  0  0  0
 22 23  1  0  0  0
 22 20  2  0  0  0
 23 24  2  0  0  0
 26 27  1  0  0  0
 26 24  1  0  0  0
 27 29  1  0  0  0
 29 30  1  0  0  0
 30 31  2  0  0  0
 30 35  1  0  0  0
 31 32  1  0  0  0
 32 33  2  0  0  0
 33 34  1  0  0  0
 34 35  2  0  0  0
  3  4  1  0  0  0
  4  5  1  0  0  0
  5  6  1  0  0  0
  6  7  2  0  0  0
  6  9  1  0  0  0
  9 10  1  0  0  0
 10 11  2  0  0  0
 11 12  1  0  0  0
 12 13  2  0  0  0
 13 16  1  0  0  0
 16 17  1  0  0  0
 16 18  2  0  0  0
 16 19  2  0  0  0
 13 14  1  0  0  0
 14 15  2  0  0  0
  5  8  1  0  0  0
  8  3  1  0  0  0
 15 10  1  0  0  0
  1  3  1  0  0  0
  1  2  1  0  0  0
 26 28  1  0  0  0
M  END
>  <CNNaffinity>
7.92723

>  <CNNscore>
0.953097

>  <minimizedAffinity>
-1.33269

>  <minimizedRMSD>
0.74108

>  <molecular weight>
464.412

$$$$



 37 41  0  0  0  0  0  0  0  0999 V2000
    3.3357   -8.9150   45.3995 N   0  0  0  0  0  0  0  0  0  0  0  0
    2.0809   -9.4676   45.9568 C   0  0  0  0  0  0  0  0  0  0  0  0
    2.0233   -9.7539   47.1834 O   0  0  0  0  0  0  0  0  0  0  0  0
    4.1981   -8.2066   46.2427 C   0  0  0  0  0  0  0  0  0  0  0  0
    5.2995   -7.0259   45.6624 S   0  0  0  0  0  0  0  0  0  0  0  0
    4.2824   -8.3624   47.5471 N   0  0  0  0  0  0  0  0  0  0  0  0
    5.2625   -7.6143   48.1246 N   0  0  0  0  0  0  0  0  0  0  0  0
    5.8765   -6.8689   47.2620 C   0  0  0  0  0  0  0  0  0  0  0  0
    8.6158   -7.1987   46.4797 O   0  0  0  0  0  0  0  0  0  0  0  0
    6.9386   -6.0722   47.4839 N   0  0  0  0  0  0  0  0  0  0  0  0
    8.2411   -6.2401   47.1108 C   0  0  0  0  0  0  0  0  0  0  0  0
    6.7484   -5.2486   47.9886 H   0  0  0  0  0  0  0  0  0  0  0  0
    9.1608   -5.1136   47.5525 C   0  0  0  0  0  0  0  0  0  0  0  0
    8.5921   -3.7373   47.2938 C   0  0  0  0  0  0  0  0  0  0  0  0
    7.3551   -3.3691   47.8367 C   0  0  0  0  0  0  0  0  0  0  0  0
    6.8150   -2.1034   47.5986 C   0  0  0  0  0  0  0  0  0  0  0  0
    7.5033   -1.1890   46.8007 C   0  0  0  0  0  0  0  0  0  0  0  0
    8.7348   -1.5454   46.2485 C   0  0  0  0  0  0  0  0  0  0  0  0
    9.2731   -2.8095   46.4955 C   0  0  0  0  0  0  0  0  0  0  0  0
    3.5499   -8.9951   43.9488 C   0  0  0  0  0  0  0  0  0  0  0  0
    4.9476   -9.4495   43.5531 C   0  0  0  0  0  0  0  0  0  0  0  0
    3.7769  -10.4016   43.4102 C   0  0  0  0  0  0  0  0  0  0  0  0
    0.8279   -9.6255   45.1265 C   0  0  0  0  0  0  0  0  0  0  0  0
    0.8956  -10.9119   44.3002 C   0  0  0  0  0  0  0  0  0  0  0  0
   -0.6147   -9.6573   46.2558 S   0  0  0  0  0  0  0  0  0  0  0  0
   -1.5965   -8.4844   45.3198 C   0  0  0  0  0  0  0  0  0  0  0  0
   -2.3379   -8.9022   44.2176 C   0  0  0  0  0  0  0  0  0  0  0  0
   -3.1020   -7.9705   43.5197 C   0  0  0  0  0  0  0  0  0  0  0  0
   -3.1081   -6.6292   43.9375 C   0  0  0  0  0  0  0  0  0  0  0  0
   -2.3744   -6.2878   45.0329 N   0  0  0  0  0  0  0  0  0  0  0  0
   -1.6458   -7.1823   45.7019 N   0  0  0  0  0  0  0  0  0  0  0  0
   -3.9101   -5.5870   43.2429 C   0  0  0  0  0  0  0  0  0  0  0  0
   -4.1511   -5.6419   41.8539 C   0  0  0  0  0  0  0  0  0  0  0  0
   -4.9128   -4.6502   41.2259 C   0  0  0  0  0  0  0  0  0  0  0  0
   -5.4274   -3.5852   41.9674 C   0  0  0  0  0  0  0  0  0  0  0  0
   -5.1821   -3.5096   43.3396 C   0  0  0  0  0  0  0  0  0  0  0  0
   -4.4277   -4.5001   43.9754 C   0  0  0  0  0  0  0  0  0  0  0  0
  1  4  1  0  0  0
  9 11  2  0  0  0
  5  4  1  0  0  0
  5  8  1  0  0  0
  6  7  1  0  0  0
  6  4  2  0  0  0
  7  8  2  0  0  0
 10 11  1  0  0  0
 10  8  1  0  0  0
 11 13  1  0  0  0
 13 14  1  0  0  0
 14 15  2  0  0  0
 14 19  1  0  0  0
 15 16  1  0  0  0
 16 17  2  0  0  0
 17 18  1  0  0  0
 18 19  2  0  0  0
  2  3  2  0  0  0
  2 23  1  0  0  0
 23 24  1  0  0  0
 23 25  1  0  0  0
 25 26  1  0  0  0
 26 27  2  0  0  0
 27 28  1  0  0  0
 28 29  2  0  0  0
 29 32  1  0  0  0
 32 33  2  0  0  0
 33 34  1  0  0  0
 34 35  2  0  0  0
 35 36  1  0  0  0
 36 37  2  0  0  0
 29 30  1  0  0  0
 30 31  2  0  0  0
 20 21  1  0  0  0
 21 22  1  0  0  0
 31 26  1  0  0  0
 22 20  1  0  0  0
 37 32  1  0  0  0
  1  2  1  0  0  0
  1 20  1  0  0  0
 10 12  1  0  0  0
M  END
>  <CNNaffinity>
7.90236

>  <CNNscore>
0.95582

>  <minimizedAffinity>
3.5265

>  <minimizedRMSD>
1.65002

>  <molecular weight>
493.455

$$$$
